MODEL 1
REMARK VINA RESULT:      -5.2      0.000      0.000
REMARK  Name = 
REMARK  7 active torsions:
REMARK  status: ('A' for Active; 'I' for Inactive)
REMARK    1  A    between atoms: N_4  and  C_5
REMARK    2  A    between atoms: C_15  and  C_17
REMARK    3  A    between atoms: C_17  and  C_19
REMARK    4  A    between atoms: C_19  and  C_20
REMARK    5  A    between atoms: C_20  and  C_21
REMARK    6  A    between atoms: C_21  and  C_22
REMARK    7  A    between atoms: C_22  and  C_23
REMARK                            x       y       z     vdW  Elec       q    Type
REMARK                         _______ _______ _______ _____ _____    ______ ____
ROOT
ATOM      1  C   UNL     1      -7.156  -8.328   0.651  0.00  0.00    +0.000 C 
ATOM      2  C   UNL     1      -8.219  -7.080   0.845  0.00  0.00    +0.000 C 
ATOM      3  C   UNL     1      -7.505  -6.169  -0.339  0.00  0.00    +0.000 C 
ATOM      4  N   UNL     1      -8.444  -5.108  -0.633  0.00  0.00    +0.000 N 
ATOM      5  C   UNL     1      -9.767  -5.462  -1.093  0.00  0.00    +0.000 C 
ATOM      6  C   UNL     1     -10.341  -6.564  -0.256  0.00  0.00    +0.000 C 
ATOM      7  N   UNL     1      -9.342  -7.617  -0.090  0.00  0.00    +0.000 N 
ATOM      8  C   UNL     1      -9.403  -8.848  -0.639  0.00  0.00    +0.000 C 
ATOM      9  O   UNL     1      -8.495  -9.703  -0.462  0.00  0.00    +0.000 OA
ENDROOT
BRANCH   4  10
ATOM     10  C   UNL     1      -8.034  -3.759  -0.462  0.00  0.00    +0.000 A 
ATOM     11  C   UNL     1      -8.988  -2.789  -0.463  0.00  0.00    +0.000 A 
ATOM     12  C   UNL     1      -8.652  -1.445  -0.299  0.00  0.00    +0.000 A 
ATOM     13  C   UNL     1      -7.341  -1.092  -0.133  0.00  0.00    +0.000 A 
ATOM     14  C   UNL     1      -6.371  -2.069  -0.132  0.00  0.00    +0.000 A 
ATOM     15 CL   UNL     1      -4.675  -1.690   0.075  0.00  0.00    +0.000 Cl
ATOM     16  C   UNL     1      -6.720  -3.394  -0.295  0.00  0.00    +0.000 A 
ENDBRANCH   4  10
BRANCH   8  17
ATOM     17  C   UNL     1     -10.617  -9.326  -1.552  0.00  0.00    +0.000 C 
ATOM     18  N   UNL     1      -9.798 -10.429  -2.354  0.00  0.00    +0.000 NA
BRANCH  17  19
ATOM     19  C   UNL     1     -11.283 -10.443  -0.577  0.00  0.00    +0.000 C 
BRANCH  19  20
ATOM     20  C   UNL     1     -12.434  -9.914   0.143  0.00  0.00    +0.000 C 
BRANCH  20  21
ATOM     21  C   UNL     1     -13.744  -9.856  -0.561  0.00  0.00    +0.000 C 
BRANCH  21  22
ATOM     22  C   UNL     1     -13.963 -11.079  -1.406  0.00  0.00    +0.000 C 
BRANCH  22  23
ATOM     23  C   UNL     1     -14.378 -10.734  -2.756  0.00  0.00    +0.000 C 
ATOM     24  N   UNL     1     -14.700 -10.448  -3.818  0.00  0.00    +0.000 NA
ENDBRANCH  22  23
ENDBRANCH  21  22
ENDBRANCH  20  21
ENDBRANCH  19  20
ENDBRANCH  17  19
ENDBRANCH   8  17
TORSDOF 7
ENDMDL
MODEL 2
REMARK VINA RESULT:      -5.1      4.163      5.216
REMARK  Name = 
REMARK  7 active torsions:
REMARK  status: ('A' for Active; 'I' for Inactive)
REMARK    1  A    between atoms: N_4  and  C_5
REMARK    2  A    between atoms: C_15  and  C_17
REMARK    3  A    between atoms: C_17  and  C_19
REMARK    4  A    between atoms: C_19  and  C_20
REMARK    5  A    between atoms: C_20  and  C_21
REMARK    6  A    between atoms: C_21  and  C_22
REMARK    7  A    between atoms: C_22  and  C_23
REMARK                            x       y       z     vdW  Elec       q    Type
REMARK                         _______ _______ _______ _____ _____    ______ ____
ROOT
ATOM      1  C   UNL     1     -11.658  -8.288   0.580  0.00  0.00    +0.000 C 
ATOM      2  C   UNL     1     -12.923  -7.246   0.781  0.00  0.00    +0.000 C 
ATOM      3  C   UNL     1     -12.394  -6.231  -0.415  0.00  0.00    +0.000 C 
ATOM      4  N   UNL     1     -13.508  -5.354  -0.703  0.00  0.00    +0.000 N 
ATOM      5  C   UNL     1     -14.752  -5.939  -1.146  0.00  0.00    +0.000 C 
ATOM      6  C   UNL     1     -15.114  -7.120  -0.297  0.00  0.00    +0.000 C 
ATOM      7  N   UNL     1     -13.943  -7.979  -0.139  0.00  0.00    +0.000 N 
ATOM      8  C   UNL     1     -13.791  -9.204  -0.682  0.00  0.00    +0.000 C 
ATOM      9  O   UNL     1     -12.745  -9.885  -0.511  0.00  0.00    +0.000 OA
ENDROOT
BRANCH   4  10
ATOM     10  C   UNL     1     -13.341  -3.953  -0.542  0.00  0.00    +0.000 A 
ATOM     11  C   UNL     1     -12.111  -3.418  -0.773  0.00  0.00    +0.000 A 
ATOM     12  C   UNL     1     -11.880  -2.050  -0.633  0.00  0.00    +0.000 A 
ATOM     13  C   UNL     1     -12.906  -1.227  -0.257  0.00  0.00    +0.000 A 
ATOM     14  C   UNL     1     -14.152  -1.762  -0.022  0.00  0.00    +0.000 A 
ATOM     15 CL   UNL     1     -15.510  -0.770   0.462  0.00  0.00    +0.000 Cl
ATOM     16  C   UNL     1     -14.364  -3.118  -0.164  0.00  0.00    +0.000 A 
ENDBRANCH   4  10
BRANCH   8  17
ATOM     17  C   UNL     1     -14.911  -9.895  -1.579  0.00  0.00    +0.000 C 
ATOM     18  N   UNL     1     -13.906 -10.569  -2.611  0.00  0.00    +0.000 NA
BRANCH  17  19
ATOM     19  C   UNL     1     -15.106 -11.290  -0.766  0.00  0.00    +0.000 C 
BRANCH  19  20
ATOM     20  C   UNL     1     -16.208 -11.211   0.185  0.00  0.00    +0.000 C 
BRANCH  20  21
ATOM     21  C   UNL     1     -17.377 -10.356  -0.157  0.00  0.00    +0.000 C 
BRANCH  21  22
ATOM     22  C   UNL     1     -18.469 -11.159  -0.806  0.00  0.00    +0.000 C 
BRANCH  22  23
ATOM     23  C   UNL     1     -18.613 -10.831  -2.215  0.00  0.00    +0.000 C 
ATOM     24  N   UNL     1     -18.719 -10.585  -3.330  0.00  0.00    +0.000 NA
ENDBRANCH  22  23
ENDBRANCH  21  22
ENDBRANCH  20  21
ENDBRANCH  19  20
ENDBRANCH  17  19
ENDBRANCH   8  17
TORSDOF 7
ENDMDL
MODEL 3
REMARK VINA RESULT:      -5.1      4.918      7.804
REMARK  Name = 
REMARK  7 active torsions:
REMARK  status: ('A' for Active; 'I' for Inactive)
REMARK    1  A    between atoms: N_4  and  C_5
REMARK    2  A    between atoms: C_15  and  C_17
REMARK    3  A    between atoms: C_17  and  C_19
REMARK    4  A    between atoms: C_19  and  C_20
REMARK    5  A    between atoms: C_20  and  C_21
REMARK    6  A    between atoms: C_21  and  C_22
REMARK    7  A    between atoms: C_22  and  C_23
REMARK                            x       y       z     vdW  Elec       q    Type
REMARK                         _______ _______ _______ _____ _____    ______ ____
ROOT
ATOM      1  C   UNL     1      -9.549  -3.959   2.042  0.00  0.00    +0.000 C 
ATOM      2  C   UNL     1     -10.410  -4.311   0.679  0.00  0.00    +0.000 C 
ATOM      3  C   UNL     1     -11.491  -3.083   0.936  0.00  0.00    +0.000 C 
ATOM      4  N   UNL     1     -12.210  -2.931  -0.310  0.00  0.00    +0.000 N 
ATOM      5  C   UNL     1     -11.464  -2.612  -1.506  0.00  0.00    +0.000 C 
ATOM      6  C   UNL     1     -10.243  -3.474  -1.613  0.00  0.00    +0.000 C 
ATOM      7  N   UNL     1      -9.549  -3.492  -0.327  0.00  0.00    +0.000 N 
ATOM      8  C   UNL     1      -8.357  -2.915  -0.072  0.00  0.00    +0.000 C 
ATOM      9  O   UNL     1      -7.823  -2.961   1.068  0.00  0.00    +0.000 OA
ENDROOT
BRANCH   4  10
ATOM     10  C   UNL     1     -13.621  -3.097  -0.316  0.00  0.00    +0.000 A 
ATOM     11  C   UNL     1     -14.121  -4.358  -0.427  0.00  0.00    +0.000 A 
ATOM     12  C   UNL     1     -15.497  -4.590  -0.438  0.00  0.00    +0.000 A 
ATOM     13  C   UNL     1     -16.361  -3.535  -0.336  0.00  0.00    +0.000 A 
ATOM     14  C   UNL     1     -15.860  -2.258  -0.224  0.00  0.00    +0.000 A 
ATOM     15 CL   UNL     1     -16.906  -0.861  -0.088  0.00  0.00    +0.000 Cl
ATOM     16  C   UNL     1     -14.497  -2.045  -0.214  0.00  0.00    +0.000 A 
ENDBRANCH   4  10
BRANCH   8  17
ATOM     17  C   UNL     1      -7.524  -2.131  -1.180  0.00  0.00    +0.000 C 
ATOM     18  N   UNL     1      -7.633  -0.701  -0.489  0.00  0.00    +0.000 NA
BRANCH  17  19
ATOM     19  C   UNL     1      -6.016  -2.355  -0.615  0.00  0.00    +0.000 C 
BRANCH  19  20
ATOM     20  C   UNL     1      -5.292  -3.354  -1.391  0.00  0.00    +0.000 C 
BRANCH  20  21
ATOM     21  C   UNL     1      -4.631  -4.471  -0.663  0.00  0.00    +0.000 C 
BRANCH  21  22
ATOM     22  C   UNL     1      -5.136  -5.805  -1.137  0.00  0.00    +0.000 C 
BRANCH  22  23
ATOM     23  C   UNL     1      -6.418  -6.139  -0.537  0.00  0.00    +0.000 C 
ATOM     24  N   UNL     1      -7.435  -6.394  -0.073  0.00  0.00    +0.000 NA
ENDBRANCH  22  23
ENDBRANCH  21  22
ENDBRANCH  20  21
ENDBRANCH  19  20
ENDBRANCH  17  19
ENDBRANCH   8  17
TORSDOF 7
ENDMDL
MODEL 4
REMARK VINA RESULT:      -5.1      4.411      6.113
REMARK  Name = 
REMARK  7 active torsions:
REMARK  status: ('A' for Active; 'I' for Inactive)
REMARK    1  A    between atoms: N_4  and  C_5
REMARK    2  A    between atoms: C_15  and  C_17
REMARK    3  A    between atoms: C_17  and  C_19
REMARK    4  A    between atoms: C_19  and  C_20
REMARK    5  A    between atoms: C_20  and  C_21
REMARK    6  A    between atoms: C_21  and  C_22
REMARK    7  A    between atoms: C_22  and  C_23
REMARK                            x       y       z     vdW  Elec       q    Type
REMARK                         _______ _______ _______ _____ _____    ______ ____
ROOT
ATOM      1  C   UNL     1     -10.589  -5.570   0.123  0.00  0.00    +0.000 C 
ATOM      2  C   UNL     1      -9.601  -4.321   0.555  0.00  0.00    +0.000 C 
ATOM      3  C   UNL     1      -8.592  -4.554  -0.737  0.00  0.00    +0.000 C 
ATOM      4  N   UNL     1      -7.772  -3.363  -0.810  0.00  0.00    +0.000 N 
ATOM      5  C   UNL     1      -8.422  -2.086  -0.989  0.00  0.00    +0.000 C 
ATOM      6  C   UNL     1      -9.598  -1.956  -0.068  0.00  0.00    +0.000 C 
ATOM      7  N   UNL     1     -10.399  -3.176  -0.132  0.00  0.00    +0.000 N 
ATOM      8  C   UNL     1     -11.630  -3.276  -0.677  0.00  0.00    +0.000 C 
ATOM      9  O   UNL     1     -12.259  -4.367  -0.707  0.00  0.00    +0.000 OA
ENDROOT
BRANCH   4  10
ATOM     10  C   UNL     1      -6.362  -3.491  -0.706  0.00  0.00    +0.000 A 
ATOM     11  C   UNL     1      -5.824  -4.741  -0.719  0.00  0.00    +0.000 A 
ATOM     12  C   UNL     1      -4.447  -4.936  -0.621  0.00  0.00    +0.000 A 
ATOM     13  C   UNL     1      -3.617  -3.853  -0.510  0.00  0.00    +0.000 A 
ATOM     14  C   UNL     1      -4.156  -2.587  -0.496  0.00  0.00    +0.000 A 
ATOM     15 CL   UNL     1      -3.156  -1.157  -0.357  0.00  0.00    +0.000 Cl
ATOM     16  C   UNL     1      -5.521  -2.411  -0.594  0.00  0.00    +0.000 A 
ENDBRANCH   4  10
BRANCH   8  17
ATOM     17  C   UNL     1     -12.391  -2.035  -1.323  0.00  0.00    +0.000 C 
ATOM     18  N   UNL     1     -13.646  -2.863  -1.844  0.00  0.00    +0.000 NA
BRANCH  17  19
ATOM     19  C   UNL     1     -13.210  -1.497  -0.026  0.00  0.00    +0.000 C 
BRANCH  19  20
ATOM     20  C   UNL     1     -14.621  -1.856  -0.090  0.00  0.00    +0.000 C 
BRANCH  20  21
ATOM     21  C   UNL     1     -15.625  -0.867   0.388  0.00  0.00    +0.000 C 
BRANCH  21  22
ATOM     22  C   UNL     1     -17.011  -1.447   0.373  0.00  0.00    +0.000 C 
BRANCH  22  23
ATOM     23  C   UNL     1     -17.420  -1.829  -0.969  0.00  0.00    +0.000 C 
ATOM     24  N   UNL     1     -17.735  -2.120  -2.033  0.00  0.00    +0.000 NA
ENDBRANCH  22  23
ENDBRANCH  21  22
ENDBRANCH  20  21
ENDBRANCH  19  20
ENDBRANCH  17  19
ENDBRANCH   8  17
TORSDOF 7
ENDMDL
MODEL 5
REMARK VINA RESULT:      -5.1      5.528      8.923
REMARK  Name = 
REMARK  7 active torsions:
REMARK  status: ('A' for Active; 'I' for Inactive)
REMARK    1  A    between atoms: N_4  and  C_5
REMARK    2  A    between atoms: C_15  and  C_17
REMARK    3  A    between atoms: C_17  and  C_19
REMARK    4  A    between atoms: C_19  and  C_20
REMARK    5  A    between atoms: C_20  and  C_21
REMARK    6  A    between atoms: C_21  and  C_22
REMARK    7  A    between atoms: C_22  and  C_23
REMARK                            x       y       z     vdW  Elec       q    Type
REMARK                         _______ _______ _______ _____ _____    ______ ____
ROOT
ATOM      1  C   UNL     1      -9.993  -3.813   2.186  0.00  0.00    +0.000 C 
ATOM      2  C   UNL     1     -10.787  -4.029   0.755  0.00  0.00    +0.000 C 
ATOM      3  C   UNL     1     -11.984  -2.958   1.154  0.00  0.00    +0.000 C 
ATOM      4  N   UNL     1     -12.688  -2.683  -0.080  0.00  0.00    +0.000 N 
ATOM      5  C   UNL     1     -11.950  -2.120  -1.187  0.00  0.00    +0.000 C 
ATOM      6  C   UNL     1     -10.650  -2.842  -1.378  0.00  0.00    +0.000 C 
ATOM      7  N   UNL     1      -9.986  -2.993  -0.085  0.00  0.00    +0.000 N 
ATOM      8  C   UNL     1      -8.860  -2.355   0.295  0.00  0.00    +0.000 C 
ATOM      9  O   UNL     1      -8.349  -2.527   1.434  0.00  0.00    +0.000 OA
ENDROOT
BRANCH   4  10
ATOM     10  C   UNL     1     -14.076  -2.974  -0.161  0.00  0.00    +0.000 A 
ATOM     11  C   UNL     1     -14.461  -4.279  -0.196  0.00  0.00    +0.000 A 
ATOM     12  C   UNL     1     -15.808  -4.632  -0.275  0.00  0.00    +0.000 A 
ATOM     13  C   UNL     1     -16.762  -3.652  -0.317  0.00  0.00    +0.000 A 
ATOM     14  C   UNL     1     -16.378  -2.331  -0.282  0.00  0.00    +0.000 A 
ATOM     15 CL   UNL     1     -17.543  -1.026  -0.333  0.00  0.00    +0.000 Cl
ATOM     16  C   UNL     1     -15.042  -1.998  -0.204  0.00  0.00    +0.000 A 
ENDBRANCH   4  10
BRANCH   8  17
ATOM     17  C   UNL     1      -8.081  -1.340  -0.652  0.00  0.00    +0.000 C 
ATOM     18  N   UNL     1      -6.823  -1.151   0.304  0.00  0.00    +0.000 NA
BRANCH  17  19
ATOM     19  C   UNL     1      -7.280  -2.390  -1.599  0.00  0.00    +0.000 C 
BRANCH  19  20
ATOM     20  C   UNL     1      -6.090  -2.912  -0.940  0.00  0.00    +0.000 C 
BRANCH  20  21
ATOM     21  C   UNL     1      -4.893  -3.212  -1.773  0.00  0.00    +0.000 C 
BRANCH  21  22
ATOM     22  C   UNL     1      -3.632  -3.152  -0.958  0.00  0.00    +0.000 C 
BRANCH  22  23
ATOM     23  C   UNL     1      -3.243  -1.781  -0.669  0.00  0.00    +0.000 C 
ATOM     24  N   UNL     1      -2.939  -0.697  -0.454  0.00  0.00    +0.000 NA
ENDBRANCH  22  23
ENDBRANCH  21  22
ENDBRANCH  20  21
ENDBRANCH  19  20
ENDBRANCH  17  19
ENDBRANCH   8  17
TORSDOF 7
ENDMDL
