MODEL 1
REMARK VINA RESULT:      -5.6      0.000      0.000
REMARK  Name = 
REMARK  4 active torsions:
REMARK  status: ('A' for Active; 'I' for Inactive)
REMARK    1  A    between atoms: C_6  and  N_7
REMARK    2  A    between atoms: C_8  and  C_10
REMARK    3  A    between atoms: C_10  and  N_11
REMARK    4  A    between atoms: N_15  and  C_16
REMARK                            x       y       z     vdW  Elec       q    Type
REMARK                         _______ _______ _______ _____ _____    ______ ____
ROOT
ATOM      1  N   UNL     1      -9.234  -3.132  -0.338  0.00  0.00    +0.000 NA
ATOM      2  C   UNL     1      -9.539  -2.601   0.931  0.00  0.00    +0.000 C 
ATOM      3  O   UNL     1      -8.877  -2.994   1.918  0.00  0.00    +0.000 OA
ENDROOT
BRANCH   1   9
ATOM      4  C   UNL     1      -5.073  -6.915  -0.713  0.00  0.00    +0.000 C 
ATOM      5  C   UNL     1      -6.234  -5.964  -0.605  0.00  0.00    +0.000 A 
ATOM      6  C   UNL     1      -5.858  -4.617  -0.673  0.00  0.00    +0.000 A 
ATOM      7  C   UNL     1      -6.868  -3.685  -0.582  0.00  0.00    +0.000 A 
ATOM      8  C   UNL     1      -6.596  -2.234  -0.643  0.00  0.00    +0.000 C 
ATOM      9  C   UNL     1      -8.188  -4.088  -0.431  0.00  0.00    +0.000 A 
ATOM     10  C   UNL     1      -8.545  -5.418  -0.366  0.00  0.00    +0.000 A 
ATOM     11  C   UNL     1      -9.973  -5.828  -0.203  0.00  0.00    +0.000 C 
ATOM     12  C   UNL     1      -7.528  -6.371  -0.457  0.00  0.00    +0.000 A 
ENDBRANCH   1   9
BRANCH   2  13
ATOM     13  C   UNL     1     -10.629  -1.603   1.027  0.00  0.00    +0.000 C 
BRANCH  13  14
ATOM     14  N   UNL     1     -11.914  -2.238   1.036  0.00  0.00    +0.000 N 
ATOM     15  C   UNL     1     -12.157  -3.285   2.004  0.00  0.00    +0.000 C 
ATOM     16  C   UNL     1     -12.980  -1.915   0.156  0.00  0.00    +0.000 C 
ATOM     17  O   UNL     1     -12.848  -0.990  -0.734  0.00  0.00    +0.000 OA
ATOM     18  N   UNL     1     -14.186  -2.546   0.191  0.00  0.00    +0.000 NA
BRANCH  18  19
ATOM     19  C   UNL     1     -15.330  -2.144  -0.810  0.00  0.00    +0.000 C 
ATOM     20  C   UNL     1     -16.094  -1.163   0.249  0.00  0.00    +0.000 C 
ATOM     21  C   UNL     1     -17.478  -1.231  -0.096  0.00  0.00    +0.000 C 
ATOM     22  C   UNL     1     -17.717  -2.635  -0.917  0.00  0.00    +0.000 C 
ATOM     23  F   UNL     1     -17.161  -2.134  -2.225  0.00  0.00    +0.000 F 
ATOM     24  C   UNL     1     -16.335  -3.363  -0.390  0.00  0.00    +0.000 C 
ENDBRANCH  18  19
ENDBRANCH  13  14
ENDBRANCH   2  13
TORSDOF 4
ENDMDL
MODEL 2
REMARK VINA RESULT:      -5.6      0.270      1.757
REMARK  Name = 
REMARK  4 active torsions:
REMARK  status: ('A' for Active; 'I' for Inactive)
REMARK    1  A    between atoms: C_6  and  N_7
REMARK    2  A    between atoms: C_8  and  C_10
REMARK    3  A    between atoms: C_10  and  N_11
REMARK    4  A    between atoms: N_15  and  C_16
REMARK                            x       y       z     vdW  Elec       q    Type
REMARK                         _______ _______ _______ _____ _____    ______ ____
ROOT
ATOM      1  N   UNL     1      -9.498  -3.038  -0.210  0.00  0.00    +0.000 NA
ATOM      2  C   UNL     1      -9.788  -2.547   1.079  0.00  0.00    +0.000 C 
ATOM      3  O   UNL     1      -9.093  -2.946   2.041  0.00  0.00    +0.000 OA
ENDROOT
BRANCH   1   9
ATOM      4  C   UNL     1      -5.262  -6.714  -0.757  0.00  0.00    +0.000 C 
ATOM      5  C   UNL     1      -6.342  -5.676  -0.620  0.00  0.00    +0.000 A 
ATOM      6  C   UNL     1      -7.617  -6.220  -0.433  0.00  0.00    +0.000 A 
ATOM      7  C   UNL     1      -8.659  -5.330  -0.298  0.00  0.00    +0.000 A 
ATOM      8  C   UNL     1     -10.050  -5.784  -0.093  0.00  0.00    +0.000 C 
ATOM      9  C   UNL     1      -8.429  -3.961  -0.350  0.00  0.00    +0.000 A 
ATOM     10  C   UNL     1      -7.167  -3.438  -0.534  0.00  0.00    +0.000 A 
ATOM     11  C   UNL     1      -6.943  -1.961  -0.587  0.00  0.00    +0.000 C 
ATOM     12  C   UNL     1      -6.103  -4.333  -0.673  0.00  0.00    +0.000 A 
ENDBRANCH   1   9
BRANCH   2  13
ATOM     13  C   UNL     1     -10.902  -1.582   1.226  0.00  0.00    +0.000 C 
BRANCH  13  14
ATOM     14  N   UNL     1     -12.172  -2.242   1.148  0.00  0.00    +0.000 N 
ATOM     15  C   UNL     1     -12.435  -3.339   2.054  0.00  0.00    +0.000 C 
ATOM     16  C   UNL     1     -13.206  -1.896   0.238  0.00  0.00    +0.000 C 
ATOM     17  O   UNL     1     -13.056  -0.927  -0.599  0.00  0.00    +0.000 OA
ATOM     18  N   UNL     1     -14.399  -2.552   0.191  0.00  0.00    +0.000 NA
BRANCH  18  19
ATOM     19  C   UNL     1     -15.507  -2.124  -0.840  0.00  0.00    +0.000 C 
ATOM     20  C   UNL     1     -16.300  -1.159   0.213  0.00  0.00    +0.000 C 
ATOM     21  C   UNL     1     -17.672  -1.211  -0.178  0.00  0.00    +0.000 C 
ATOM     22  C   UNL     1     -17.892  -2.598  -1.034  0.00  0.00    +0.000 C 
ATOM     23  F   UNL     1     -17.291  -2.075  -2.313  0.00  0.00    +0.000 F 
ATOM     24  C   UNL     1     -16.533  -3.344  -0.476  0.00  0.00    +0.000 C 
ENDBRANCH  18  19
ENDBRANCH  13  14
ENDBRANCH   2  13
TORSDOF 4
ENDMDL
MODEL 3
REMARK VINA RESULT:      -5.5      3.982      8.256
REMARK  Name = 
REMARK  4 active torsions:
REMARK  status: ('A' for Active; 'I' for Inactive)
REMARK    1  A    between atoms: C_6  and  N_7
REMARK    2  A    between atoms: C_8  and  C_10
REMARK    3  A    between atoms: C_10  and  N_11
REMARK    4  A    between atoms: N_15  and  C_16
REMARK                            x       y       z     vdW  Elec       q    Type
REMARK                         _______ _______ _______ _____ _____    ______ ____
ROOT
ATOM      1  N   UNL     1     -11.792  -3.710   0.322  0.00  0.00    +0.000 NA
ATOM      2  C   UNL     1     -10.756  -3.317  -0.549  0.00  0.00    +0.000 C 
ATOM      3  O   UNL     1     -10.547  -4.003  -1.576  0.00  0.00    +0.000 OA
ENDROOT
BRANCH   1   9
ATOM      4  C   UNL     1     -14.778  -8.301  -1.009  0.00  0.00    +0.000 C 
ATOM      5  C   UNL     1     -14.034  -7.032  -0.689  0.00  0.00    +0.000 A 
ATOM      6  C   UNL     1     -12.864  -7.244   0.049  0.00  0.00    +0.000 A 
ATOM      7  C   UNL     1     -12.128  -6.128   0.380  0.00  0.00    +0.000 A 
ATOM      8  C   UNL     1     -10.873  -6.224   1.154  0.00  0.00    +0.000 C 
ATOM      9  C   UNL     1     -12.547  -4.864  -0.013  0.00  0.00    +0.000 A 
ATOM     10  C   UNL     1     -13.702  -4.669  -0.742  0.00  0.00    +0.000 A 
ATOM     11  C   UNL     1     -14.134  -3.299  -1.153  0.00  0.00    +0.000 C 
ATOM     12  C   UNL     1     -14.457  -5.795  -1.081  0.00  0.00    +0.000 A 
ENDBRANCH   1   9
BRANCH   2  13
ATOM     13  C   UNL     1      -9.968  -2.112  -0.200  0.00  0.00    +0.000 C 
BRANCH  13  14
ATOM     14  N   UNL     1      -8.656  -2.464   0.253  0.00  0.00    +0.000 N 
ATOM     15  C   UNL     1      -8.488  -2.857   1.636  0.00  0.00    +0.000 C 
ATOM     16  C   UNL     1      -7.492  -2.460  -0.560  0.00  0.00    +0.000 C 
ATOM     17  O   UNL     1      -7.555  -2.128  -1.805  0.00  0.00    +0.000 OA
ATOM     18  N   UNL     1      -6.259  -2.797  -0.090  0.00  0.00    +0.000 NA
BRANCH  18  19
ATOM     19  C   UNL     1      -5.006  -2.772  -1.040  0.00  0.00    +0.000 C 
ATOM     20  C   UNL     1      -4.148  -3.844  -0.155  0.00  0.00    +0.000 C 
ATOM     21  C   UNL     1      -2.779  -3.485  -0.341  0.00  0.00    +0.000 C 
ATOM     22  C   UNL     1      -2.738  -1.907  -0.804  0.00  0.00    +0.000 C 
ATOM     23  F   UNL     1      -3.121  -2.167  -2.238  0.00  0.00    +0.000 F 
ATOM     24  C   UNL     1      -4.252  -1.545  -0.265  0.00  0.00    +0.000 C 
ENDBRANCH  18  19
ENDBRANCH  13  14
ENDBRANCH   2  13
TORSDOF 4
ENDMDL
MODEL 4
REMARK VINA RESULT:      -5.5      3.967      8.207
REMARK  Name = 
REMARK  4 active torsions:
REMARK  status: ('A' for Active; 'I' for Inactive)
REMARK    1  A    between atoms: C_6  and  N_7
REMARK    2  A    between atoms: C_8  and  C_10
REMARK    3  A    between atoms: C_10  and  N_11
REMARK    4  A    between atoms: N_15  and  C_16
REMARK                            x       y       z     vdW  Elec       q    Type
REMARK                         _______ _______ _______ _____ _____    ______ ____
ROOT
ATOM      1  N   UNL     1     -11.860  -3.711   0.345  0.00  0.00    +0.000 NA
ATOM      2  C   UNL     1     -10.820  -3.307  -0.516  0.00  0.00    +0.000 C 
ATOM      3  O   UNL     1     -10.574  -4.007  -1.525  0.00  0.00    +0.000 OA
ENDROOT
BRANCH   1   9
ATOM      4  C   UNL     1     -14.718  -8.395  -0.942  0.00  0.00    +0.000 C 
ATOM      5  C   UNL     1     -13.904  -7.189  -0.562  0.00  0.00    +0.000 A 
ATOM      6  C   UNL     1     -14.426  -5.986  -1.053  0.00  0.00    +0.000 A 
ATOM      7  C   UNL     1     -13.735  -4.836  -0.744  0.00  0.00    +0.000 A 
ATOM      8  C   UNL     1     -14.189  -3.507  -1.203  0.00  0.00    +0.000 C 
ATOM      9  C   UNL     1     -12.577  -4.893   0.021  0.00  0.00    +0.000 A 
ATOM     10  C   UNL     1     -12.073  -6.084   0.499  0.00  0.00    +0.000 A 
ATOM     11  C   UNL     1     -10.825  -6.121   1.320  0.00  0.00    +0.000 C 
ATOM     12  C   UNL     1     -12.767  -7.257   0.191  0.00  0.00    +0.000 A 
ENDBRANCH   1   9
BRANCH   2  13
ATOM     13  C   UNL     1     -10.074  -2.073  -0.179  0.00  0.00    +0.000 C 
BRANCH  13  14
ATOM     14  N   UNL     1      -8.755  -2.378   0.291  0.00  0.00    +0.000 N 
ATOM     15  C   UNL     1      -8.579  -2.695   1.692  0.00  0.00    +0.000 C 
ATOM     16  C   UNL     1      -7.592  -2.396  -0.523  0.00  0.00    +0.000 C 
ATOM     17  O   UNL     1      -7.661  -2.131  -1.784  0.00  0.00    +0.000 OA
ATOM     18  N   UNL     1      -6.352  -2.686  -0.038  0.00  0.00    +0.000 NA
BRANCH  18  19
ATOM     19  C   UNL     1      -5.101  -2.689  -0.989  0.00  0.00    +0.000 C 
ATOM     20  C   UNL     1      -4.406  -3.991  -0.289  0.00  0.00    +0.000 C 
ATOM     21  C   UNL     1      -2.999  -3.799  -0.436  0.00  0.00    +0.000 C 
ATOM     22  C   UNL     1      -2.737  -2.190  -0.654  0.00  0.00    +0.000 C 
ATOM     23  F   UNL     1      -3.141  -2.174  -2.106  0.00  0.00    +0.000 F 
ATOM     24  C   UNL     1      -4.191  -1.710  -0.047  0.00  0.00    +0.000 C 
ENDBRANCH  18  19
ENDBRANCH  13  14
ENDBRANCH   2  13
TORSDOF 4
ENDMDL
MODEL 5
REMARK VINA RESULT:      -5.5      2.946      8.642
REMARK  Name = 
REMARK  4 active torsions:
REMARK  status: ('A' for Active; 'I' for Inactive)
REMARK    1  A    between atoms: C_6  and  N_7
REMARK    2  A    between atoms: C_8  and  C_10
REMARK    3  A    between atoms: C_10  and  N_11
REMARK    4  A    between atoms: N_15  and  C_16
REMARK                            x       y       z     vdW  Elec       q    Type
REMARK                         _______ _______ _______ _____ _____    ______ ____
ROOT
ATOM      1  N   UNL     1     -16.548  -3.183   0.583  0.00  0.00    +0.000 NA
ATOM      2  C   UNL     1     -15.535  -2.793  -0.316  0.00  0.00    +0.000 C 
ATOM      3  O   UNL     1     -15.438  -3.400  -1.407  0.00  0.00    +0.000 OA
ENDROOT
BRANCH   1   9
ATOM      4  C   UNL     1     -19.954  -7.410  -0.932  0.00  0.00    +0.000 C 
ATOM      5  C   UNL     1     -19.095  -6.232  -0.559  0.00  0.00    +0.000 A 
ATOM      6  C   UNL     1     -17.930  -6.589   0.130  0.00  0.00    +0.000 A 
ATOM      7  C   UNL     1     -17.091  -5.562   0.504  0.00  0.00    +0.000 A 
ATOM      8  C   UNL     1     -15.831  -5.813   1.233  0.00  0.00    +0.000 C 
ATOM      9  C   UNL     1     -17.410  -4.245   0.201  0.00  0.00    +0.000 A 
ATOM     10  C   UNL     1     -18.561  -3.908  -0.478  0.00  0.00    +0.000 A 
ATOM     11  C   UNL     1     -18.883  -2.482  -0.793  0.00  0.00    +0.000 C 
ATOM     12  C   UNL     1     -19.419  -4.941  -0.862  0.00  0.00    +0.000 A 
ENDBRANCH   1   9
BRANCH   2  13
ATOM     13  C   UNL     1     -14.637  -1.684   0.081  0.00  0.00    +0.000 C 
BRANCH  13  14
ATOM     14  N   UNL     1     -13.339  -2.171   0.439  0.00  0.00    +0.000 N 
ATOM     15  C   UNL     1     -13.131  -2.652   1.788  0.00  0.00    +0.000 C 
ATOM     16  C   UNL     1     -12.225  -2.222  -0.440  0.00  0.00    +0.000 C 
ATOM     17  O   UNL     1     -12.325  -1.819  -1.661  0.00  0.00    +0.000 OA
ATOM     18  N   UNL     1     -11.002  -2.688  -0.060  0.00  0.00    +0.000 NA
BRANCH  18  19
ATOM     19  C   UNL     1      -9.806  -2.719  -1.080  0.00  0.00    +0.000 C 
ATOM     20  C   UNL     1      -9.021  -3.937  -0.326  0.00  0.00    +0.000 C 
ATOM     21  C   UNL     1      -7.633  -3.706  -0.568  0.00  0.00    +0.000 C 
ATOM     22  C   UNL     1      -7.449  -2.111  -0.920  0.00  0.00    +0.000 C 
ATOM     23  F   UNL     1      -7.932  -2.220  -2.343  0.00  0.00    +0.000 F 
ATOM     24  C   UNL     1      -8.886  -1.638  -0.267  0.00  0.00    +0.000 C 
ENDBRANCH  18  19
ENDBRANCH  13  14
ENDBRANCH   2  13
TORSDOF 4
ENDMDL
