MODEL 1
REMARK VINA RESULT:      -4.6      0.000      0.000
REMARK  Name = 
REMARK  9 active torsions:
REMARK  status: ('A' for Active; 'I' for Inactive)
REMARK    1  A    between atoms: O_2  and  C_3
REMARK    2  A    between atoms: C_3  and  C_4
REMARK    3  A    between atoms: C_3  and  C_11
REMARK    4  A    between atoms: C_11  and  N_13
REMARK    5  A    between atoms: N_16  and  C_18
REMARK    6  A    between atoms: C_18  and  C_19
REMARK    7  A    between atoms: C_19  and  C_20
REMARK    8  A    between atoms: C_20  and  O_21
REMARK    9  A    between atoms: O_21  and  C_22
REMARK                            x       y       z     vdW  Elec       q    Type
REMARK                         _______ _______ _______ _____ _____    ______ ____
ROOT
ATOM      1  C   UNL     1     -16.056  -5.053  -0.360  0.00  0.00    +0.000 C 
ATOM      2  C   UNL     1     -17.406  -5.536   0.433  0.00  0.00    +0.000 C 
ENDROOT
BRANCH   1   3
ATOM      3  N   UNL     1     -15.069  -5.675   0.637  0.00  0.00    +0.000 NA
ATOM      4  C   UNL     1     -14.209  -6.648   0.059  0.00  0.00    +0.000 C 
ATOM      5  O   UNL     1     -14.388  -6.845  -1.168  0.00  0.00    +0.000 OA
ATOM      6  N   UNL     1     -13.212  -7.363   0.780  0.00  0.00    +0.000 N 
ATOM      7  C   UNL     1     -12.948  -7.225   2.197  0.00  0.00    +0.000 C 
BRANCH   6   8
ATOM      8  C   UNL     1     -12.375  -8.282   0.080  0.00  0.00    +0.000 C 
BRANCH   8   9
ATOM      9  C   UNL     1     -12.748  -9.699   0.064  0.00  0.00    +0.000 C 
BRANCH   9  10
ATOM     10  C   UNL     1     -12.648 -10.448  -1.224  0.00  0.00    +0.000 C 
BRANCH  10  11
ATOM     11  O   UNL     1     -13.745 -11.182  -1.587  0.00  0.00    +0.000 OA
BRANCH  11  12
ATOM     12  C   UNL     1     -14.751 -10.301  -1.988  0.00  0.00    +0.000 C 
ATOM     13  C   UNL     1     -16.085 -10.715  -1.394  0.00  0.00    +0.000 C 
ATOM     14  C   UNL     1     -14.857 -10.409  -3.490  0.00  0.00    +0.000 C 
ENDBRANCH  11  12
ENDBRANCH  10  11
ENDBRANCH   9  10
ENDBRANCH   8   9
ENDBRANCH   6   8
ENDBRANCH   1   3
BRANCH   1  15
ATOM     15  C   UNL     1     -16.053  -3.444   0.228  0.00  0.00    +0.000 C 
BRANCH  15  16
ATOM     16  C   UNL     1     -14.732  -2.926  -0.444  0.00  0.00    +0.000 A 
ATOM     17  C   UNL     1     -14.373  -3.014  -1.704  0.00  0.00    +0.000 A 
ATOM     18  C   UNL     1     -13.169  -2.501  -2.111  0.00  0.00    +0.000 A 
ATOM     19  C   UNL     1     -12.321  -1.891  -1.211  0.00  0.00    +0.000 A 
ATOM     20  C   UNL     1     -12.699  -1.801   0.108  0.00  0.00    +0.000 A 
ATOM     21  C   UNL     1     -13.914  -2.327   0.481  0.00  0.00    +0.000 A 
ATOM     22  F   UNL     1     -14.226  -2.222   1.810  0.00  0.00    +0.000 F 
ENDBRANCH  15  16
BRANCH  15  24
ATOM     23  C   UNL     1     -17.588  -1.768  -0.313  0.00  0.00    +0.000 C 
ATOM     24  O   UNL     1     -17.059  -2.937  -0.758  0.00  0.00    +0.000 OA
ENDBRANCH  15  24
ENDBRANCH   1  15
TORSDOF 9
ENDMDL
MODEL 2
REMARK VINA RESULT:      -4.5      4.894      6.054
REMARK  Name = 
REMARK  9 active torsions:
REMARK  status: ('A' for Active; 'I' for Inactive)
REMARK    1  A    between atoms: O_2  and  C_3
REMARK    2  A    between atoms: C_3  and  C_4
REMARK    3  A    between atoms: C_3  and  C_11
REMARK    4  A    between atoms: C_11  and  N_13
REMARK    5  A    between atoms: N_16  and  C_18
REMARK    6  A    between atoms: C_18  and  C_19
REMARK    7  A    between atoms: C_19  and  C_20
REMARK    8  A    between atoms: C_20  and  O_21
REMARK    9  A    between atoms: O_21  and  C_22
REMARK                            x       y       z     vdW  Elec       q    Type
REMARK                         _______ _______ _______ _____ _____    ______ ____
ROOT
ATOM      1  C   UNL     1     -11.641  -4.604  -0.739  0.00  0.00    +0.000 C 
ATOM      2  C   UNL     1     -13.151  -4.866  -0.159  0.00  0.00    +0.000 C 
ENDROOT
BRANCH   1   3
ATOM      3  N   UNL     1     -10.927  -5.460   0.315  0.00  0.00    +0.000 NA
ATOM      4  C   UNL     1     -10.178  -6.536  -0.233  0.00  0.00    +0.000 C 
ATOM      5  O   UNL     1     -10.216  -6.618  -1.486  0.00  0.00    +0.000 OA
ATOM      6  N   UNL     1      -9.432  -7.468   0.542  0.00  0.00    +0.000 N 
ATOM      7  C   UNL     1      -9.349  -7.472   1.987  0.00  0.00    +0.000 C 
BRANCH   6   8
ATOM      8  C   UNL     1      -8.679  -8.479  -0.126  0.00  0.00    +0.000 C 
BRANCH   8   9
ATOM      9  C   UNL     1      -7.221  -8.481   0.022  0.00  0.00    +0.000 C 
BRANCH   9  10
ATOM     10  C   UNL     1      -6.429  -9.496  -0.735  0.00  0.00    +0.000 C 
BRANCH  10  11
ATOM     11  O   UNL     1      -5.627 -10.318   0.009  0.00  0.00    +0.000 OA
BRANCH  11  12
ATOM     12  C   UNL     1      -4.411 -10.469  -0.661  0.00  0.00    +0.000 C 
ATOM     13  C   UNL     1      -3.463  -9.342  -0.297  0.00  0.00    +0.000 C 
ATOM     14  C   UNL     1      -4.707 -10.370  -2.138  0.00  0.00    +0.000 C 
ENDBRANCH  11  12
ENDBRANCH  10  11
ENDBRANCH   9  10
ENDBRANCH   8   9
ENDBRANCH   6   8
ENDBRANCH   1   3
BRANCH   1  15
ATOM     15  C   UNL     1     -11.425  -3.062  -0.024  0.00  0.00    +0.000 C 
BRANCH  15  16
ATOM     16  C   UNL     1      -9.993  -2.721  -0.571  0.00  0.00    +0.000 A 
ATOM     17  C   UNL     1      -9.544  -2.842  -1.799  0.00  0.00    +0.000 A 
ATOM     18  C   UNL     1      -8.251  -2.494  -2.092  0.00  0.00    +0.000 A 
ATOM     19  C   UNL     1      -7.408  -2.016  -1.111  0.00  0.00    +0.000 A 
ATOM     20  C   UNL     1      -7.882  -1.891   0.174  0.00  0.00    +0.000 A 
ATOM     21  C   UNL     1      -9.185  -2.250   0.432  0.00  0.00    +0.000 A 
ATOM     22  F   UNL     1      -9.592  -2.119   1.733  0.00  0.00    +0.000 F 
ENDBRANCH  15  16
BRANCH  15  24
ATOM     23  C   UNL     1     -12.635  -1.125  -0.517  0.00  0.00    +0.000 C 
ATOM     24  O   UNL     1     -12.265  -2.329  -1.024  0.00  0.00    +0.000 OA
ENDBRANCH  15  24
ENDBRANCH   1  15
TORSDOF 9
ENDMDL
MODEL 3
REMARK VINA RESULT:      -4.5      4.754      6.226
REMARK  Name = 
REMARK  9 active torsions:
REMARK  status: ('A' for Active; 'I' for Inactive)
REMARK    1  A    between atoms: O_2  and  C_3
REMARK    2  A    between atoms: C_3  and  C_4
REMARK    3  A    between atoms: C_3  and  C_11
REMARK    4  A    between atoms: C_11  and  N_13
REMARK    5  A    between atoms: N_16  and  C_18
REMARK    6  A    between atoms: C_18  and  C_19
REMARK    7  A    between atoms: C_19  and  C_20
REMARK    8  A    between atoms: C_20  and  O_21
REMARK    9  A    between atoms: O_21  and  C_22
REMARK                            x       y       z     vdW  Elec       q    Type
REMARK                         _______ _______ _______ _____ _____    ______ ____
ROOT
ATOM      1  C   UNL     1     -11.424  -4.941  -0.715  0.00  0.00    +0.000 C 
ATOM      2  C   UNL     1     -12.893  -5.400  -0.153  0.00  0.00    +0.000 C 
ENDROOT
BRANCH   1   3
ATOM      3  N   UNL     1     -10.617  -5.677   0.363  0.00  0.00    +0.000 NA
ATOM      4  C   UNL     1      -9.827  -6.744  -0.143  0.00  0.00    +0.000 C 
ATOM      5  O   UNL     1      -9.911  -6.918  -1.384  0.00  0.00    +0.000 OA
ATOM      6  N   UNL     1      -8.995  -7.574   0.661  0.00  0.00    +0.000 N 
ATOM      7  C   UNL     1      -8.853  -7.470   2.097  0.00  0.00    +0.000 C 
BRANCH   6   8
ATOM      8  C   UNL     1      -8.210  -8.585   0.031  0.00  0.00    +0.000 C 
BRANCH   8   9
ATOM      9  C   UNL     1      -6.765  -8.605   0.275  0.00  0.00    +0.000 C 
BRANCH   9  10
ATOM     10  C   UNL     1      -5.887  -7.746  -0.573  0.00  0.00    +0.000 C 
BRANCH  10  11
ATOM     11  O   UNL     1      -5.377  -6.624   0.022  0.00  0.00    +0.000 OA
BRANCH  11  12
ATOM     12  C   UNL     1      -6.066  -5.514  -0.468  0.00  0.00    +0.000 C 
ATOM     13  C   UNL     1      -5.110  -4.557  -1.155  0.00  0.00    +0.000 C 
ATOM     14  C   UNL     1      -6.658  -4.802   0.726  0.00  0.00    +0.000 C 
ENDBRANCH  11  12
ENDBRANCH  10  11
ENDBRANCH   9  10
ENDBRANCH   8   9
ENDBRANCH   6   8
ENDBRANCH   1   3
BRANCH   1  15
ATOM     15  C   UNL     1     -11.434  -3.375  -0.021  0.00  0.00    +0.000 C 
BRANCH  15  16
ATOM     16  C   UNL     1     -10.058  -2.844  -0.561  0.00  0.00    +0.000 A 
ATOM     17  C   UNL     1      -9.532  -3.018  -1.751  0.00  0.00    +0.000 A 
ATOM     18  C   UNL     1      -8.307  -2.477  -2.044  0.00  0.00    +0.000 A 
ATOM     19  C   UNL     1      -7.613  -1.748  -1.101  0.00  0.00    +0.000 A 
ATOM     20  C   UNL     1      -8.166  -1.569   0.145  0.00  0.00    +0.000 A 
ATOM     21  C   UNL     1      -9.397  -2.127   0.404  0.00  0.00    +0.000 A 
ATOM     22  F   UNL     1      -9.887  -1.928   1.667  0.00  0.00    +0.000 F 
ENDBRANCH  15  16
BRANCH  15  24
ATOM     23  C   UNL     1     -12.860  -1.608  -0.572  0.00  0.00    +0.000 C 
ATOM     24  O   UNL     1     -12.357  -2.780  -1.038  0.00  0.00    +0.000 OA
ENDBRANCH  15  24
ENDBRANCH   1  15
TORSDOF 9
ENDMDL
MODEL 4
REMARK VINA RESULT:      -4.5      3.411      5.039
REMARK  Name = 
REMARK  9 active torsions:
REMARK  status: ('A' for Active; 'I' for Inactive)
REMARK    1  A    between atoms: O_2  and  C_3
REMARK    2  A    between atoms: C_3  and  C_4
REMARK    3  A    between atoms: C_3  and  C_11
REMARK    4  A    between atoms: C_11  and  N_13
REMARK    5  A    between atoms: N_16  and  C_18
REMARK    6  A    between atoms: C_18  and  C_19
REMARK    7  A    between atoms: C_19  and  C_20
REMARK    8  A    between atoms: C_20  and  O_21
REMARK    9  A    between atoms: O_21  and  C_22
REMARK                            x       y       z     vdW  Elec       q    Type
REMARK                         _______ _______ _______ _____ _____    ______ ____
ROOT
ATOM      1  C   UNL     1      -8.964  -4.102   0.980  0.00  0.00    +0.000 C 
ATOM      2  C   UNL     1      -7.358  -4.358   1.180  0.00  0.00    +0.000 C 
ENDROOT
BRANCH   1   3
ATOM      3  N   UNL     1      -9.222  -5.391   0.189  0.00  0.00    +0.000 NA
ATOM      4  C   UNL     1     -10.350  -6.126   0.643  0.00  0.00    +0.000 C 
ATOM      5  O   UNL     1     -10.957  -5.609   1.614  0.00  0.00    +0.000 OA
ATOM      6  N   UNL     1     -10.789  -7.353   0.071  0.00  0.00    +0.000 N 
ATOM      7  C   UNL     1     -10.143  -8.037  -1.028  0.00  0.00    +0.000 C 
BRANCH   6   8
ATOM      8  C   UNL     1     -11.966  -7.974   0.583  0.00  0.00    +0.000 C 
BRANCH   8   9
ATOM      9  C   UNL     1     -13.186  -7.946  -0.230  0.00  0.00    +0.000 C 
BRANCH   9  10
ATOM     10  C   UNL     1     -13.892  -9.233  -0.501  0.00  0.00    +0.000 C 
BRANCH  10  11
ATOM     11  O   UNL     1     -13.241 -10.125  -1.310  0.00  0.00    +0.000 OA
BRANCH  11  12
ATOM     12  C   UNL     1     -14.189 -10.982  -1.872  0.00  0.00    +0.000 C 
ATOM     13  C   UNL     1     -14.588 -10.498  -3.253  0.00  0.00    +0.000 C 
ATOM     14  C   UNL     1     -15.412 -10.925  -0.987  0.00  0.00    +0.000 C 
ENDBRANCH  11  12
ENDBRANCH  10  11
ENDBRANCH   9  10
ENDBRANCH   8   9
ENDBRANCH   6   8
ENDBRANCH   1   3
BRANCH   1  15
ATOM     15  C   UNL     1      -8.823  -3.006  -0.329  0.00  0.00    +0.000 C 
BRANCH  15  16
ATOM     16  C   UNL     1     -10.315  -2.525  -0.425  0.00  0.00    +0.000 A 
ATOM     17  C   UNL     1     -11.053  -1.978   0.514  0.00  0.00    +0.000 A 
ATOM     18  C   UNL     1     -12.348  -1.621   0.245  0.00  0.00    +0.000 A 
ATOM     19  C   UNL     1     -12.894  -1.828  -1.005  0.00  0.00    +0.000 A 
ATOM     20  C   UNL     1     -12.118  -2.402  -1.985  0.00  0.00    +0.000 A 
ATOM     21  C   UNL     1     -10.822  -2.748  -1.679  0.00  0.00    +0.000 A 
ATOM     22  F   UNL     1     -10.107  -3.330  -2.691  0.00  0.00    +0.000 F 
ENDBRANCH  15  16
BRANCH  15  24
ATOM     23  C   UNL     1      -7.628  -0.999  -0.329  0.00  0.00    +0.000 C 
ATOM     24  O   UNL     1      -8.244  -1.893   0.487  0.00  0.00    +0.000 OA
ENDBRANCH  15  24
ENDBRANCH   1  15
TORSDOF 9
ENDMDL
MODEL 5
REMARK VINA RESULT:      -4.3      3.621      6.247
REMARK  Name = 
REMARK  9 active torsions:
REMARK  status: ('A' for Active; 'I' for Inactive)
REMARK    1  A    between atoms: O_2  and  C_3
REMARK    2  A    between atoms: C_3  and  C_4
REMARK    3  A    between atoms: C_3  and  C_11
REMARK    4  A    between atoms: C_11  and  N_13
REMARK    5  A    between atoms: N_16  and  C_18
REMARK    6  A    between atoms: C_18  and  C_19
REMARK    7  A    between atoms: C_19  and  C_20
REMARK    8  A    between atoms: C_20  and  O_21
REMARK    9  A    between atoms: O_21  and  C_22
REMARK                            x       y       z     vdW  Elec       q    Type
REMARK                         _______ _______ _______ _____ _____    ______ ____
ROOT
ATOM      1  C   UNL     1     -14.413  -4.827  -1.000  0.00  0.00    +0.000 C 
ATOM      2  C   UNL     1     -14.399  -6.463  -1.093  0.00  0.00    +0.000 C 
ENDROOT
BRANCH   1   3
ATOM      3  N   UNL     1     -13.077  -4.710  -0.256  0.00  0.00    +0.000 NA
ATOM      4  C   UNL     1     -12.310  -3.574  -0.632  0.00  0.00    +0.000 C 
ATOM      5  O   UNL     1     -12.841  -2.849  -1.509  0.00  0.00    +0.000 OA
ATOM      6  N   UNL     1     -11.037  -3.252  -0.084  0.00  0.00    +0.000 N 
ATOM      7  C   UNL     1     -10.333  -4.037   0.907  0.00  0.00    +0.000 C 
BRANCH   6   8
ATOM      8  C   UNL     1     -10.382  -2.057  -0.507  0.00  0.00    +0.000 C 
BRANCH   8   9
ATOM      9  C   UNL     1      -9.122  -1.680   0.139  0.00  0.00    +0.000 C 
BRANCH   9  10
ATOM     10  C   UNL     1      -7.918  -1.467  -0.717  0.00  0.00    +0.000 C 
BRANCH  10  11
ATOM     11  O   UNL     1      -7.493  -2.544  -1.447  0.00  0.00    +0.000 OA
BRANCH  11  12
ATOM     12  C   UNL     1      -6.386  -3.102  -0.805  0.00  0.00    +0.000 C 
ATOM     13  C   UNL     1      -5.215  -3.207  -1.765  0.00  0.00    +0.000 C 
ATOM     14  C   UNL     1      -6.776  -4.501  -0.392  0.00  0.00    +0.000 C 
ENDBRANCH  11  12
ENDBRANCH  10  11
ENDBRANCH   9  10
ENDBRANCH   8   9
ENDBRANCH   6   8
ENDBRANCH   1   3
BRANCH   1  15
ATOM     15  C   UNL     1     -15.477  -4.720   0.339  0.00  0.00    +0.000 C 
BRANCH  15  16
ATOM     16  C   UNL     1     -16.089  -3.300   0.070  0.00  0.00    +0.000 A 
ATOM     17  C   UNL     1     -17.016  -2.967  -0.799  0.00  0.00    +0.000 A 
ATOM     18  C   UNL     1     -17.427  -1.663  -0.895  0.00  0.00    +0.000 A 
ATOM     19  C   UNL     1     -16.880  -0.688  -0.088  0.00  0.00    +0.000 A 
ATOM     20  C   UNL     1     -15.909  -1.040   0.820  0.00  0.00    +0.000 A 
ATOM     21  C   UNL     1     -15.520  -2.358   0.889  0.00  0.00    +0.000 A 
ATOM     22  F   UNL     1     -14.539  -2.642   1.800  0.00  0.00    +0.000 F 
ENDBRANCH  15  16
BRANCH  15  24
ATOM     23  C   UNL     1     -17.351  -6.064   0.714  0.00  0.00    +0.000 C 
ATOM     24  O   UNL     1     -16.543  -5.580  -0.265  0.00  0.00    +0.000 OA
ENDBRANCH  15  24
ENDBRANCH   1  15
TORSDOF 9
ENDMDL
