MODEL 1
REMARK VINA RESULT:      -5.4      0.000      0.000
REMARK  Name = 
REMARK  4 active torsions:
REMARK  status: ('A' for Active; 'I' for Inactive)
REMARK    1  A    between atoms: O_2  and  C_3
REMARK    2  A    between atoms: C_3  and  C_5
REMARK    3  A    between atoms: C_11  and  S_12
REMARK    4  A    between atoms: S_12  and  N_15
REMARK                            x       y       z     vdW  Elec       q    Type
REMARK                         _______ _______ _______ _____ _____    ______ ____
ROOT
ATOM      1  C   UNL     1     -14.083  -2.960  -1.022  0.00  0.00    +0.000 A 
ATOM      2  C   UNL     1     -13.927  -4.315  -1.088  0.00  0.00    +0.000 A 
ATOM      3  C   UNL     1     -14.912  -5.192  -0.616  0.00  0.00    +0.000 A 
ATOM      4  C   UNL     1     -14.752  -6.660  -0.683  0.00  0.00    +0.000 C 
ATOM      5  C   UNL     1     -16.057  -4.665  -0.077  0.00  0.00    +0.000 A 
ATOM      6  F   UNL     1     -17.064  -5.466   0.405  0.00  0.00    +0.000 F 
ATOM      7  C   UNL     1     -16.255  -3.321   0.008  0.00  0.00    +0.000 A 
ATOM      8  C   UNL     1     -15.254  -2.485  -0.472  0.00  0.00    +0.000 A 
ENDROOT
BRANCH   7   9
ATOM      9  S   UNL     1     -17.670  -2.570   0.673  0.00  0.00    +0.000 S 
ATOM     10  O   UNL     1     -17.512  -2.308   2.144  0.00  0.00    +0.000 OA
ATOM     11  O   UNL     1     -17.778  -1.212   0.025  0.00  0.00    +0.000 OA
BRANCH   9  12
ATOM     12  N   UNL     1     -19.105  -3.495   0.405  0.00  0.00    +0.000 NA
ATOM     13  C   UNL     1     -20.111  -3.276   1.311  0.00  0.00    +0.000 C 
ATOM     14  C   UNL     1     -20.166  -1.951   2.008  0.00  0.00    +0.000 C 
ATOM     15  C   UNL     1     -20.685  -0.913   1.028  0.00  0.00    +0.000 C 
ATOM     16  N   UNL     1     -21.323  -1.593  -0.080  0.00  0.00    +0.000 NA
ATOM     17  C   UNL     1     -20.966  -2.667  -0.878  0.00  0.00    +0.000 C 
ATOM     18  O   UNL     1     -21.817  -3.287  -1.488  0.00  0.00    +0.000 OA
ATOM     19  C   UNL     1     -19.503  -3.172  -1.074  0.00  0.00    +0.000 C 
ATOM     20  C   UNL     1     -19.882  -4.734  -1.420  0.00  0.00    +0.000 C 
ENDBRANCH   9  12
ENDBRANCH   7   9
BRANCH   1  21
ATOM     21  C   UNL     1     -13.063  -2.039  -1.511  0.00  0.00    +0.000 C 
ATOM     22  O   UNL     1     -12.605  -2.129  -2.671  0.00  0.00    +0.000 OA
BRANCH  21  24
ATOM     23  C   UNL     1     -11.468  -1.250   0.147  0.00  0.00    +0.000 C 
ATOM     24  O   UNL     1     -12.567  -1.031  -0.705  0.00  0.00    +0.000 OA
ENDBRANCH  21  24
ENDBRANCH   1  21
TORSDOF 4
ENDMDL
MODEL 2
REMARK VINA RESULT:      -5.1      7.269      9.743
REMARK  Name = 
REMARK  4 active torsions:
REMARK  status: ('A' for Active; 'I' for Inactive)
REMARK    1  A    between atoms: O_2  and  C_3
REMARK    2  A    between atoms: C_3  and  C_5
REMARK    3  A    between atoms: C_11  and  S_12
REMARK    4  A    between atoms: S_12  and  N_15
REMARK                            x       y       z     vdW  Elec       q    Type
REMARK                         _______ _______ _______ _____ _____    ______ ____
ROOT
ATOM      1  C   UNL     1      -9.109  -8.832  -0.876  0.00  0.00    +0.000 A 
ATOM      2  C   UNL     1      -7.795  -8.984  -0.538  0.00  0.00    +0.000 A 
ATOM      3  C   UNL     1      -7.036  -7.919  -0.039  0.00  0.00    +0.000 A 
ATOM      4  C   UNL     1      -5.613  -8.074   0.330  0.00  0.00    +0.000 C 
ATOM      5  C   UNL     1      -7.638  -6.696   0.111  0.00  0.00    +0.000 A 
ATOM      6  F   UNL     1      -6.955  -5.607   0.595  0.00  0.00    +0.000 F 
ATOM      7  C   UNL     1      -8.946  -6.498  -0.213  0.00  0.00    +0.000 A 
ATOM      8  C   UNL     1      -9.665  -7.582  -0.704  0.00  0.00    +0.000 A 
ENDROOT
BRANCH   7   9
ATOM      9  S   UNL     1      -9.786  -4.990  -0.056  0.00  0.00    +0.000 S 
ATOM     10  O   UNL     1     -11.246  -5.138  -0.378  0.00  0.00    +0.000 OA
ATOM     11  O   UNL     1      -9.726  -4.615   1.405  0.00  0.00    +0.000 OA
BRANCH   9  12
ATOM     12  N   UNL     1      -9.105  -3.741  -1.038  0.00  0.00    +0.000 NA
ATOM     13  C   UNL     1     -10.021  -2.945  -1.678  0.00  0.00    +0.000 C 
ATOM     14  C   UNL     1     -11.380  -2.792  -1.068  0.00  0.00    +0.000 C 
ATOM     15  C   UNL     1     -11.267  -1.869   0.133  0.00  0.00    +0.000 C 
ATOM     16  N   UNL     1     -10.018  -1.142   0.050  0.00  0.00    +0.000 NA
ATOM     17  C   UNL     1      -8.711  -1.511  -0.220  0.00  0.00    +0.000 C 
ATOM     18  O   UNL     1      -7.906  -0.683  -0.603  0.00  0.00    +0.000 OA
ATOM     19  C   UNL     1      -8.155  -2.961  -0.069  0.00  0.00    +0.000 C 
ATOM     20  C   UNL     1      -6.958  -2.827  -1.188  0.00  0.00    +0.000 C 
ENDBRANCH   9  12
ENDBRANCH   7   9
BRANCH   1  21
ATOM     21  C   UNL     1      -9.908  -9.936  -1.397  0.00  0.00    +0.000 C 
ATOM     22  O   UNL     1      -9.953 -10.187  -2.621  0.00  0.00    +0.000 OA
BRANCH  21  24
ATOM     23  C   UNL     1     -12.049 -10.668  -0.506  0.00  0.00    +0.000 C 
ATOM     24  O   UNL     1     -10.644 -10.745  -0.551  0.00  0.00    +0.000 OA
ENDBRANCH  21  24
ENDBRANCH   1  21
TORSDOF 4
ENDMDL
MODEL 3
REMARK VINA RESULT:      -5.1      5.594      7.368
REMARK  Name = 
REMARK  4 active torsions:
REMARK  status: ('A' for Active; 'I' for Inactive)
REMARK    1  A    between atoms: O_2  and  C_3
REMARK    2  A    between atoms: C_3  and  C_5
REMARK    3  A    between atoms: C_11  and  S_12
REMARK    4  A    between atoms: S_12  and  N_15
REMARK                            x       y       z     vdW  Elec       q    Type
REMARK                         _______ _______ _______ _____ _____    ______ ____
ROOT
ATOM      1  C   UNL     1      -9.998  -8.028  -0.673  0.00  0.00    +0.000 A 
ATOM      2  C   UNL     1      -9.503  -6.779  -0.913  0.00  0.00    +0.000 A 
ATOM      3  C   UNL     1     -10.316  -5.641  -0.851  0.00  0.00    +0.000 A 
ATOM      4  C   UNL     1      -9.788  -4.284  -1.110  0.00  0.00    +0.000 C 
ATOM      5  C   UNL     1     -11.642  -5.797  -0.540  0.00  0.00    +0.000 A 
ATOM      6  F   UNL     1     -12.497  -4.725  -0.461  0.00  0.00    +0.000 F 
ATOM      7  C   UNL     1     -12.179  -7.023  -0.292  0.00  0.00    +0.000 A 
ATOM      8  C   UNL     1     -11.337  -8.128  -0.363  0.00  0.00    +0.000 A 
ENDROOT
BRANCH   7   9
ATOM      9  S   UNL     1     -13.841  -7.312   0.108  0.00  0.00    +0.000 S 
ATOM     10  O   UNL     1     -14.219  -6.646   1.400  0.00  0.00    +0.000 OA
ATOM     11  O   UNL     1     -14.663  -6.632  -0.959  0.00  0.00    +0.000 OA
BRANCH   9  12
ATOM     12  N   UNL     1     -14.224  -8.996   0.197  0.00  0.00    +0.000 NA
ATOM     13  C   UNL     1     -15.138  -9.330   1.162  0.00  0.00    +0.000 C 
ATOM     14  C   UNL     1     -16.125  -8.291   1.599  0.00  0.00    +0.000 C 
ATOM     15  C   UNL     1     -17.176  -8.139   0.513  0.00  0.00    +0.000 C 
ATOM     16  N   UNL     1     -17.117  -9.292  -0.360  0.00  0.00    +0.000 NA
ATOM     17  C   UNL     1     -16.083  -9.972  -0.980  0.00  0.00    +0.000 C 
ATOM     18  O   UNL     1     -16.240 -11.119  -1.354  0.00  0.00    +0.000 OA
ATOM     19  C   UNL     1     -14.671  -9.368  -1.257  0.00  0.00    +0.000 C 
ATOM     20  C   UNL     1     -13.848 -10.791  -1.253  0.00  0.00    +0.000 C 
ENDBRANCH   9  12
ENDBRANCH   7   9
BRANCH   1  21
ATOM     21  C   UNL     1      -9.159  -9.220  -0.735  0.00  0.00    +0.000 C 
ATOM     22  O   UNL     1      -8.024  -9.245  -0.210  0.00  0.00    +0.000 OA
BRANCH  21  24
ATOM     23  C   UNL     1      -9.862 -10.369  -2.759  0.00  0.00    +0.000 C 
ATOM     24  O   UNL     1      -9.592 -10.365  -1.378  0.00  0.00    +0.000 OA
ENDBRANCH  21  24
ENDBRANCH   1  21
TORSDOF 4
ENDMDL
MODEL 4
REMARK VINA RESULT:      -5.1      6.832      9.894
REMARK  Name = 
REMARK  4 active torsions:
REMARK  status: ('A' for Active; 'I' for Inactive)
REMARK    1  A    between atoms: O_2  and  C_3
REMARK    2  A    between atoms: C_3  and  C_5
REMARK    3  A    between atoms: C_11  and  S_12
REMARK    4  A    between atoms: S_12  and  N_15
REMARK                            x       y       z     vdW  Elec       q    Type
REMARK                         _______ _______ _______ _____ _____    ______ ____
ROOT
ATOM      1  C   UNL     1     -10.358  -7.861  -0.408  0.00  0.00    +0.000 A 
ATOM      2  C   UNL     1     -11.717  -7.923  -0.291  0.00  0.00    +0.000 A 
ATOM      3  C   UNL     1     -12.508  -6.768  -0.287  0.00  0.00    +0.000 A 
ATOM      4  C   UNL     1     -13.980  -6.825  -0.161  0.00  0.00    +0.000 C 
ATOM      5  C   UNL     1     -11.892  -5.549  -0.405  0.00  0.00    +0.000 A 
ATOM      6  F   UNL     1     -12.605  -4.375  -0.409  0.00  0.00    +0.000 F 
ATOM      7  C   UNL     1     -10.540  -5.439  -0.525  0.00  0.00    +0.000 A 
ATOM      8  C   UNL     1      -9.791  -6.610  -0.525  0.00  0.00    +0.000 A 
ENDROOT
BRANCH   7   9
ATOM      9  S   UNL     1      -9.679  -3.942  -0.678  0.00  0.00    +0.000 S 
ATOM     10  O   UNL     1      -9.909  -3.311  -2.022  0.00  0.00    +0.000 OA
ATOM     11  O   UNL     1     -10.285  -2.994   0.328  0.00  0.00    +0.000 OA
BRANCH   9  12
ATOM     12  N   UNL     1      -7.980  -4.118  -0.410  0.00  0.00    +0.000 NA
ATOM     13  C   UNL     1      -7.189  -3.270  -1.142  0.00  0.00    +0.000 C 
ATOM     14  C   UNL     1      -7.769  -1.962  -1.587  0.00  0.00    +0.000 C 
ATOM     15  C   UNL     1      -7.832  -1.032  -0.388  0.00  0.00    +0.000 C 
ATOM     16  N   UNL     1      -6.966  -1.547   0.651  0.00  0.00    +0.000 NA
ATOM     17  C   UNL     1      -6.774  -2.802   1.204  0.00  0.00    +0.000 C 
ATOM     18  O   UNL     1      -5.741  -3.062   1.792  0.00  0.00    +0.000 OA
ATOM     19  C   UNL     1      -7.815  -3.962   1.139  0.00  0.00    +0.000 C 
ATOM     20  C   UNL     1      -6.735  -5.197   1.249  0.00  0.00    +0.000 C 
ENDBRANCH   9  12
ENDBRANCH   7   9
BRANCH   1  21
ATOM     21  C   UNL     1      -9.526  -9.059  -0.413  0.00  0.00    +0.000 C 
ATOM     22  O   UNL     1      -8.400  -9.072   0.131  0.00  0.00    +0.000 OA
BRANCH  21  24
ATOM     23  C   UNL     1      -9.930 -10.370  -2.421  0.00  0.00    +0.000 C 
ATOM     24  O   UNL     1      -9.956 -10.224  -1.021  0.00  0.00    +0.000 OA
ENDBRANCH  21  24
ENDBRANCH   1  21
TORSDOF 4
ENDMDL
MODEL 5
REMARK VINA RESULT:      -5.1      4.232      8.236
REMARK  Name = 
REMARK  4 active torsions:
REMARK  status: ('A' for Active; 'I' for Inactive)
REMARK    1  A    between atoms: O_2  and  C_3
REMARK    2  A    between atoms: C_3  and  C_5
REMARK    3  A    between atoms: C_11  and  S_12
REMARK    4  A    between atoms: S_12  and  N_15
REMARK                            x       y       z     vdW  Elec       q    Type
REMARK                         _______ _______ _______ _____ _____    ______ ____
ROOT
ATOM      1  C   UNL     1     -15.079  -3.082  -0.602  0.00  0.00    +0.000 A 
ATOM      2  C   UNL     1     -15.305  -4.427  -0.558  0.00  0.00    +0.000 A 
ATOM      3  C   UNL     1     -14.256  -5.352  -0.623  0.00  0.00    +0.000 A 
ATOM      4  C   UNL     1     -14.491  -6.811  -0.578  0.00  0.00    +0.000 C 
ATOM      5  C   UNL     1     -12.972  -4.882  -0.734  0.00  0.00    +0.000 A 
ATOM      6  F   UNL     1     -11.895  -5.732  -0.802  0.00  0.00    +0.000 F 
ATOM      7  C   UNL     1     -12.699  -3.549  -0.780  0.00  0.00    +0.000 A 
ATOM      8  C   UNL     1     -13.770  -2.664  -0.711  0.00  0.00    +0.000 A 
ENDROOT
BRANCH   7   9
ATOM      9  S   UNL     1     -11.111  -2.869  -0.918  0.00  0.00    +0.000 S 
ATOM     10  O   UNL     1     -10.709  -2.698  -2.355  0.00  0.00    +0.000 OA
ATOM     11  O   UNL     1     -11.191  -1.474  -0.348  0.00  0.00    +0.000 OA
BRANCH   9  12
ATOM     12  N   UNL     1      -9.911  -3.801  -0.093  0.00  0.00    +0.000 NA
ATOM     13  C   UNL     1      -8.665  -3.773  -0.664  0.00  0.00    +0.000 C 
ATOM     14  C   UNL     1      -8.284  -2.580  -1.486  0.00  0.00    +0.000 C 
ATOM     15  C   UNL     1      -7.990  -1.423  -0.546  0.00  0.00    +0.000 C 
ATOM     16  N   UNL     1      -7.778  -1.945   0.787  0.00  0.00    +0.000 NA
ATOM     17  C   UNL     1      -8.454  -2.861   1.576  0.00  0.00    +0.000 C 
ATOM     18  O   UNL     1      -7.884  -3.413   2.499  0.00  0.00    +0.000 OA
ATOM     19  C   UNL     1      -9.948  -3.264   1.377  0.00  0.00    +0.000 C 
ATOM     20  C   UNL     1      -9.832  -4.766   2.035  0.00  0.00    +0.000 C 
ENDBRANCH   9  12
ENDBRANCH   7   9
BRANCH   1  21
ATOM     21  C   UNL     1     -16.166  -2.111  -0.534  0.00  0.00    +0.000 C 
ATOM     22  O   UNL     1     -16.208  -1.241   0.362  0.00  0.00    +0.000 OA
BRANCH  21  24
ATOM     23  C   UNL     1     -18.496  -2.504  -1.108  0.00  0.00    +0.000 C 
ATOM     24  O   UNL     1     -17.190  -2.120  -1.464  0.00  0.00    +0.000 OA
ENDBRANCH  21  24
ENDBRANCH   1  21
TORSDOF 4
ENDMDL
