MODEL 1
REMARK VINA RESULT:      -5.3      0.000      0.000
REMARK  Name = 
REMARK  4 active torsions:
REMARK  status: ('A' for Active; 'I' for Inactive)
REMARK    1  A    between atoms: C_8  and  N_9
REMARK    2  A    between atoms: C_10  and  C_12
REMARK    3  A    between atoms: C_14  and  N_15
REMARK    4  A    between atoms: C_19  and  N_20
REMARK                            x       y       z     vdW  Elec       q    Type
REMARK                         _______ _______ _______ _____ _____    ______ ____
ROOT
ATOM      1  C   UNL     1     -12.794  -7.807  -0.235  0.00  0.00    +0.000 A 
ATOM      2  C   UNL     1     -11.429  -8.029  -0.209  0.00  0.00    +0.000 A 
ATOM      3  C   UNL     1     -10.896  -9.271  -0.474  0.00  0.00    +0.000 A 
ATOM      4  C   UNL     1     -11.725 -10.334  -0.777  0.00  0.00    +0.000 A 
ATOM      5  C   UNL     1     -13.090 -10.133  -0.808  0.00  0.00    +0.000 A 
ATOM      6  C   UNL     1     -13.611  -8.881  -0.540  0.00  0.00    +0.000 A 
ATOM      7  C   UNL     1     -15.087  -8.709  -0.584  0.00  0.00    +0.000 C 
ENDROOT
BRANCH   1   9
ATOM      8  N   UNL     1     -13.659  -5.556  -0.983  0.00  0.00    +0.000 NA
ATOM      9  C   UNL     1     -13.340  -6.469   0.053  0.00  0.00    +0.000 C 
ATOM     10  O   UNL     1     -13.535  -6.107   1.244  0.00  0.00    +0.000 OA
BRANCH   8  18
ATOM     11  C   UNL     1     -11.885  -3.399  -0.811  0.00  0.00    +0.000 C 
ATOM     12  C   UNL     1     -13.331  -3.190  -0.537  0.00  0.00    +0.000 A 
ATOM     13  C   UNL     1     -13.869  -1.967  -0.194  0.00  0.00    +0.000 A 
ATOM     14  C   UNL     1     -15.228  -1.800   0.059  0.00  0.00    +0.000 A 
ATOM     15 CL   UNL     1     -15.807  -0.207   0.487  0.00  0.00    +0.000 Cl
ATOM     16  N   UNL     1     -15.992  -2.878  -0.046  0.00  0.00    +0.000 NA
ATOM     17  C   UNL     1     -15.539  -4.101  -0.376  0.00  0.00    +0.000 A 
ATOM     18  C   UNL     1     -14.189  -4.267  -0.627  0.00  0.00    +0.000 A 
ENDBRANCH   8  18
ENDBRANCH   1   9
BRANCH   3  19
ATOM     19  N   UNL     1      -9.492  -9.507  -0.448  0.00  0.00    +0.000 N 
ATOM     20  O   UNL     1      -8.776  -9.125   0.494  0.00  0.00    +0.000 OA
ATOM     21  O   UNL     1      -8.930 -10.175  -1.494  0.00  0.00    +0.000 OA
ENDBRANCH   3  19
BRANCH   5  22
ATOM     22  N   UNL     1     -13.960 -11.206  -1.115  0.00  0.00    +0.000 N 
ATOM     23  O   UNL     1     -14.392 -11.355  -2.269  0.00  0.00    +0.000 OA
ATOM     24  O   UNL     1     -14.338 -12.096  -0.146  0.00  0.00    +0.000 OA
ENDBRANCH   5  22
TORSDOF 4
ENDMDL
MODEL 2
REMARK VINA RESULT:      -5.3      4.381      6.627
REMARK  Name = 
REMARK  4 active torsions:
REMARK  status: ('A' for Active; 'I' for Inactive)
REMARK    1  A    between atoms: C_8  and  N_9
REMARK    2  A    between atoms: C_10  and  C_12
REMARK    3  A    between atoms: C_14  and  N_15
REMARK    4  A    between atoms: C_19  and  N_20
REMARK                            x       y       z     vdW  Elec       q    Type
REMARK                         _______ _______ _______ _____ _____    ______ ____
ROOT
ATOM      1  C   UNL     1      -8.282  -4.167  -0.261  0.00  0.00    +0.000 A 
ATOM      2  C   UNL     1      -8.070  -5.530  -0.167  0.00  0.00    +0.000 A 
ATOM      3  C   UNL     1      -6.833  -6.085  -0.411  0.00  0.00    +0.000 A 
ATOM      4  C   UNL     1      -5.765  -5.279  -0.759  0.00  0.00    +0.000 A 
ATOM      5  C   UNL     1      -5.958  -3.916  -0.858  0.00  0.00    +0.000 A 
ATOM      6  C   UNL     1      -7.204  -3.373  -0.610  0.00  0.00    +0.000 A 
ATOM      7  C   UNL     1      -7.367  -1.901  -0.728  0.00  0.00    +0.000 C 
ENDROOT
BRANCH   1   9
ATOM      8  N   UNL     1     -10.599  -3.497  -1.012  0.00  0.00    +0.000 NA
ATOM      9  C   UNL     1      -9.616  -3.597   0.004  0.00  0.00    +0.000 C 
ATOM     10  O   UNL     1      -9.910  -3.181   1.157  0.00  0.00    +0.000 OA
BRANCH   8  18
ATOM     11  C   UNL     1     -12.702  -5.239  -0.404  0.00  0.00    +0.000 C 
ATOM     12  C   UNL     1     -12.928  -3.771  -0.379  0.00  0.00    +0.000 A 
ATOM     13  C   UNL     1     -14.143  -3.196  -0.065  0.00  0.00    +0.000 A 
ATOM     14  C   UNL     1     -14.328  -1.816  -0.050  0.00  0.00    +0.000 A 
ATOM     15 CL   UNL     1     -15.907  -1.190   0.360  0.00  0.00    +0.000 Cl
ATOM     16  N   UNL     1     -13.274  -1.069  -0.351  0.00  0.00    +0.000 NA
ATOM     17  C   UNL     1     -12.061  -1.558  -0.665  0.00  0.00    +0.000 A 
ATOM     18  C   UNL     1     -11.878  -2.929  -0.681  0.00  0.00    +0.000 A 
ENDBRANCH   8  18
ENDBRANCH   1   9
BRANCH   3  19
ATOM     19  N   UNL     1      -6.607  -7.487  -0.317  0.00  0.00    +0.000 N 
ATOM     20  O   UNL     1      -7.438  -8.256   0.198  0.00  0.00    +0.000 OA
ATOM     21  O   UNL     1      -5.441  -7.988  -0.811  0.00  0.00    +0.000 OA
ENDBRANCH   3  19
BRANCH   5  22
ATOM     22  N   UNL     1      -4.880  -3.070  -1.213  0.00  0.00    +0.000 N 
ATOM     23  O   UNL     1      -4.595  -2.883  -2.407  0.00  0.00    +0.000 OA
ATOM     24  O   UNL     1      -4.136  -2.448  -0.248  0.00  0.00    +0.000 OA
ENDBRANCH   5  22
TORSDOF 4
ENDMDL
MODEL 3
REMARK VINA RESULT:      -5.3      3.068      5.436
REMARK  Name = 
REMARK  4 active torsions:
REMARK  status: ('A' for Active; 'I' for Inactive)
REMARK    1  A    between atoms: C_8  and  N_9
REMARK    2  A    between atoms: C_10  and  C_12
REMARK    3  A    between atoms: C_14  and  N_15
REMARK    4  A    between atoms: C_19  and  N_20
REMARK                            x       y       z     vdW  Elec       q    Type
REMARK                         _______ _______ _______ _____ _____    ______ ____
ROOT
ATOM      1  C   UNL     1     -13.081  -4.057  -0.245  0.00  0.00    +0.000 A 
ATOM      2  C   UNL     1     -12.869  -5.417  -0.115  0.00  0.00    +0.000 A 
ATOM      3  C   UNL     1     -11.646  -5.985  -0.395  0.00  0.00    +0.000 A 
ATOM      4  C   UNL     1     -10.592  -5.196  -0.816  0.00  0.00    +0.000 A 
ATOM      5  C   UNL     1     -10.784  -3.837  -0.952  0.00  0.00    +0.000 A 
ATOM      6  C   UNL     1     -12.017  -3.280  -0.667  0.00  0.00    +0.000 A 
ATOM      7  C   UNL     1     -12.180  -1.812  -0.827  0.00  0.00    +0.000 C 
ENDROOT
BRANCH   1   9
ATOM      8  N   UNL     1     -15.424  -3.397  -0.916  0.00  0.00    +0.000 NA
ATOM      9  C   UNL     1     -14.400  -3.472   0.060  0.00  0.00    +0.000 C 
ATOM     10  O   UNL     1     -14.642  -3.022   1.211  0.00  0.00    +0.000 OA
BRANCH   8  18
ATOM     11  C   UNL     1     -17.505  -5.109  -0.163  0.00  0.00    +0.000 C 
ATOM     12  C   UNL     1     -17.725  -3.639  -0.174  0.00  0.00    +0.000 A 
ATOM     13  C   UNL     1     -18.923  -3.049   0.174  0.00  0.00    +0.000 A 
ATOM     14  C   UNL     1     -19.102  -1.668   0.154  0.00  0.00    +0.000 A 
ATOM     15 CL   UNL     1     -20.660  -1.023   0.612  0.00  0.00    +0.000 Cl
ATOM     16  N   UNL     1     -18.061  -0.937  -0.216  0.00  0.00    +0.000 NA
ATOM     17  C   UNL     1     -16.864  -1.441  -0.567  0.00  0.00    +0.000 A 
ATOM     18  C   UNL     1     -16.686  -2.813  -0.548  0.00  0.00    +0.000 A 
ENDBRANCH   8  18
ENDBRANCH   1   9
BRANCH   3  19
ATOM     19  N   UNL     1     -11.420  -7.385  -0.264  0.00  0.00    +0.000 N 
ATOM     20  O   UNL     1     -10.292  -7.887  -0.409  0.00  0.00    +0.000 OA
ATOM     21  O   UNL     1     -12.482  -8.186   0.029  0.00  0.00    +0.000 OA
ENDBRANCH   3  19
BRANCH   5  22
ATOM     22  N   UNL     1      -9.720  -3.008  -1.382  0.00  0.00    +0.000 N 
ATOM     23  O   UNL     1      -9.496  -2.851  -2.593  0.00  0.00    +0.000 OA
ATOM     24  O   UNL     1      -8.924  -2.368  -0.472  0.00  0.00    +0.000 OA
ENDBRANCH   5  22
TORSDOF 4
ENDMDL
MODEL 4
REMARK VINA RESULT:      -5.2      4.755      6.492
REMARK  Name = 
REMARK  4 active torsions:
REMARK  status: ('A' for Active; 'I' for Inactive)
REMARK    1  A    between atoms: C_8  and  N_9
REMARK    2  A    between atoms: C_10  and  C_12
REMARK    3  A    between atoms: C_14  and  N_15
REMARK    4  A    between atoms: C_19  and  N_20
REMARK                            x       y       z     vdW  Elec       q    Type
REMARK                         _______ _______ _______ _____ _____    ______ ____
ROOT
ATOM      1  C   UNL     1      -7.941  -4.073  -0.688  0.00  0.00    +0.000 A 
ATOM      2  C   UNL     1      -6.968  -3.092  -0.760  0.00  0.00    +0.000 A 
ATOM      3  C   UNL     1      -5.632  -3.392  -0.618  0.00  0.00    +0.000 A 
ATOM      4  C   UNL     1      -5.230  -4.696  -0.398  0.00  0.00    +0.000 A 
ATOM      5  C   UNL     1      -6.186  -5.689  -0.323  0.00  0.00    +0.000 A 
ATOM      6  C   UNL     1      -7.524  -5.374  -0.468  0.00  0.00    +0.000 A 
ATOM      7  C   UNL     1      -8.519  -6.474  -0.381  0.00  0.00    +0.000 C 
ENDROOT
BRANCH   1   9
ATOM      8  N   UNL     1     -10.208  -3.523   0.278  0.00  0.00    +0.000 NA
ATOM      9  C   UNL     1      -9.365  -3.728  -0.843  0.00  0.00    +0.000 C 
ATOM     10  O   UNL     1      -9.867  -3.606  -1.992  0.00  0.00    +0.000 OA
BRANCH   8  18
ATOM     11  C   UNL     1     -10.944  -0.824   0.344  0.00  0.00    +0.000 C 
ATOM     12  C   UNL     1     -11.972  -1.864   0.080  0.00  0.00    +0.000 A 
ATOM     13  C   UNL     1     -13.303  -1.576  -0.140  0.00  0.00    +0.000 A 
ATOM     14  C   UNL     1     -14.247  -2.571  -0.384  0.00  0.00    +0.000 A 
ATOM     15 CL   UNL     1     -15.908  -2.097  -0.651  0.00  0.00    +0.000 Cl
ATOM     16  N   UNL     1     -13.806  -3.820  -0.397  0.00  0.00    +0.000 NA
ATOM     17  C   UNL     1     -12.526  -4.177  -0.191  0.00  0.00    +0.000 A 
ATOM     18  C   UNL     1     -11.589  -3.189   0.052  0.00  0.00    +0.000 A 
ENDBRANCH   8  18
ENDBRANCH   1   9
BRANCH   3  19
ATOM     19  N   UNL     1      -4.625  -2.388  -0.689  0.00  0.00    +0.000 N 
ATOM     20  O   UNL     1      -4.604  -1.418   0.089  0.00  0.00    +0.000 OA
ATOM     21  O   UNL     1      -3.661  -2.506  -1.645  0.00  0.00    +0.000 OA
ENDBRANCH   3  19
BRANCH   5  22
ATOM     22  N   UNL     1      -5.799  -7.032  -0.099  0.00  0.00    +0.000 N 
ATOM     23  O   UNL     1      -5.427  -7.745  -1.045  0.00  0.00    +0.000 OA
ATOM     24  O   UNL     1      -5.830  -7.564   1.161  0.00  0.00    +0.000 OA
ENDBRANCH   5  22
TORSDOF 4
ENDMDL
MODEL 5
REMARK VINA RESULT:      -5.2      4.565      7.664
REMARK  Name = 
REMARK  4 active torsions:
REMARK  status: ('A' for Active; 'I' for Inactive)
REMARK    1  A    between atoms: C_8  and  N_9
REMARK    2  A    between atoms: C_10  and  C_12
REMARK    3  A    between atoms: C_14  and  N_15
REMARK    4  A    between atoms: C_19  and  N_20
REMARK                            x       y       z     vdW  Elec       q    Type
REMARK                         _______ _______ _______ _____ _____    ______ ____
ROOT
ATOM      1  C   UNL     1     -11.148  -4.963  -0.383  0.00  0.00    +0.000 A 
ATOM      2  C   UNL     1     -10.915  -3.600  -0.384  0.00  0.00    +0.000 A 
ATOM      3  C   UNL     1     -11.923  -2.696  -0.132  0.00  0.00    +0.000 A 
ATOM      4  C   UNL     1     -13.205  -3.140   0.133  0.00  0.00    +0.000 A 
ATOM      5  C   UNL     1     -13.458  -4.497   0.138  0.00  0.00    +0.000 A 
ATOM      6  C   UNL     1     -12.436  -5.392  -0.116  0.00  0.00    +0.000 A 
ATOM      7  C   UNL     1     -12.752  -6.844  -0.099  0.00  0.00    +0.000 C 
ENDROOT
BRANCH   1   9
ATOM      8  N   UNL     1      -9.153  -6.322   0.359  0.00  0.00    +0.000 NA
ATOM      9  C   UNL     1     -10.052  -5.910  -0.656  0.00  0.00    +0.000 C 
ATOM     10  O   UNL     1      -9.893  -6.377  -1.816  0.00  0.00    +0.000 OA
BRANCH   8  18
ATOM     11  C   UNL     1      -6.617  -5.297  -0.230  0.00  0.00    +0.000 C 
ATOM     12  C   UNL     1      -6.849  -6.764  -0.275  0.00  0.00    +0.000 A 
ATOM     13  C   UNL     1      -5.867  -7.678  -0.597  0.00  0.00    +0.000 A 
ATOM     14  C   UNL     1      -6.113  -9.048  -0.633  0.00  0.00    +0.000 A 
ATOM     15 CL   UNL     1      -4.798 -10.120  -1.054  0.00  0.00    +0.000 Cl
ATOM     16  N   UNL     1      -7.344  -9.441  -0.339  0.00  0.00    +0.000 NA
ATOM     17  C   UNL     1      -8.351  -8.610  -0.016  0.00  0.00    +0.000 A 
ATOM     18  C   UNL     1      -8.107  -7.249   0.019  0.00  0.00    +0.000 A 
ENDBRANCH   8  18
ENDBRANCH   1   9
BRANCH   3  19
ATOM     19  N   UNL     1     -11.691  -1.292  -0.133  0.00  0.00    +0.000 N 
ATOM     20  O   UNL     1     -10.649  -0.795   0.330  0.00  0.00    +0.000 OA
ATOM     21  O   UNL     1     -12.648  -0.479  -0.661  0.00  0.00    +0.000 OA
ENDBRANCH   3  19
BRANCH   5  22
ATOM     22  N   UNL     1     -14.763  -4.976   0.406  0.00  0.00    +0.000 N 
ATOM     23  O   UNL     1     -15.576  -5.133  -0.518  0.00  0.00    +0.000 OA
ATOM     24  O   UNL     1     -15.147  -5.272   1.686  0.00  0.00    +0.000 OA
ENDBRANCH   5  22
TORSDOF 4
ENDMDL
