MODEL 1
REMARK VINA RESULT:      -5.1      0.000      0.000
REMARK  Name = 
REMARK  2 active torsions:
REMARK  status: ('A' for Active; 'I' for Inactive)
REMARK    1  A    between atoms: N_2  and  C_15
REMARK    2  A    between atoms: N_5  and  C_6
REMARK                            x       y       z     vdW  Elec       q    Type
REMARK                         _______ _______ _______ _____ _____    ______ ____
ROOT
ATOM      1  C   UNL     1     -18.006  -5.134  -0.360  0.00  0.00    +0.000 C 
ATOM      2  N   UNL     1     -17.923  -3.768  -0.526  0.00  0.00    +0.000 N 
ATOM      3  C   UNL     1     -16.645  -3.110  -0.581  0.00  0.00    +0.000 C 
ATOM      4  O   UNL     1     -16.518  -1.855  -0.735  0.00  0.00    +0.000 OA
ATOM      5  N   UNL     1     -15.433  -3.823  -0.465  0.00  0.00    +0.000 NA
ENDROOT
BRANCH   5   6
ATOM      6  C   UNL     1     -14.178  -3.166  -0.518  0.00  0.00    +0.000 A 
ATOM      7  C   UNL     1     -13.691  -2.756  -1.735  0.00  0.00    +0.000 A 
ATOM      8  C   UNL     1     -12.488  -2.120  -1.849  0.00  0.00    +0.000 A 
ATOM      9  C   UNL     1     -11.779  -1.906  -0.674  0.00  0.00    +0.000 A 
ATOM     10  C   UNL     1     -12.240  -2.306   0.576  0.00  0.00    +0.000 A 
ATOM     11  N   UNL     1     -11.588  -2.120   1.720  0.00  0.00    +0.000 NA
ATOM     12  S   UNL     1     -12.577  -2.788   2.922  0.00  0.00    +0.000 S 
ATOM     13  N   UNL     1     -13.820  -3.295   1.885  0.00  0.00    +0.000 NA
ATOM     14  C   UNL     1     -13.423  -2.926   0.643  0.00  0.00    +0.000 A 
ENDBRANCH   5   6
BRANCH   2  15
ATOM     15  C   UNL     1     -19.105  -2.784  -0.671  0.00  0.00    +0.000 C 
ATOM     16  C   UNL     1     -20.112  -3.769  -1.485  0.00  0.00    +0.000 C 
ATOM     17  C   UNL     1     -21.301  -2.847  -1.662  0.00  0.00    +0.000 C 
ATOM     18  N   UNL     1     -21.725  -2.543  -0.350  0.00  0.00    +0.000 NA
ATOM     19  C   UNL     1     -21.640  -1.177   0.092  0.00  0.00    +0.000 C 
ATOM     20  C   UNL     1     -21.084  -1.369   1.527  0.00  0.00    +0.000 C 
ATOM     21  O   UNL     1     -19.776  -1.698   1.272  0.00  0.00    +0.000 OA
ATOM     22  C   UNL     1     -19.678  -3.162   0.948  0.00  0.00    +0.000 C 
ATOM     23  C   UNL     1     -21.229  -3.461   0.556  0.00  0.00    +0.000 C 
ENDBRANCH   2  15
TORSDOF 2
ENDMDL
MODEL 2
REMARK VINA RESULT:      -5.0      8.862     11.381
REMARK  Name = 
REMARK  2 active torsions:
REMARK  status: ('A' for Active; 'I' for Inactive)
REMARK    1  A    between atoms: N_2  and  C_15
REMARK    2  A    between atoms: N_5  and  C_6
REMARK                            x       y       z     vdW  Elec       q    Type
REMARK                         _______ _______ _______ _____ _____    ______ ____
ROOT
ATOM      1  C   UNL     1      -9.349  -6.456   0.494  0.00  0.00    +0.000 C 
ATOM      2  N   UNL     1      -8.235  -5.918  -0.114  0.00  0.00    +0.000 N 
ATOM      3  C   UNL     1      -7.058  -6.715  -0.332  0.00  0.00    +0.000 C 
ATOM      4  O   UNL     1      -6.010  -6.264  -0.890  0.00  0.00    +0.000 OA
ATOM      5  N   UNL     1      -6.989  -8.068   0.064  0.00  0.00    +0.000 NA
ENDROOT
BRANCH   5   6
ATOM      6  C   UNL     1      -5.824  -8.846  -0.154  0.00  0.00    +0.000 A 
ATOM      7  C   UNL     1      -5.716  -9.575  -1.312  0.00  0.00    +0.000 A 
ATOM      8  C   UNL     1      -4.619 -10.343  -1.576  0.00  0.00    +0.000 A 
ATOM      9  C   UNL     1      -3.615 -10.353  -0.616  0.00  0.00    +0.000 A 
ATOM     10  C   UNL     1      -3.689  -9.628   0.569  0.00  0.00    +0.000 A 
ATOM     11  N   UNL     1      -2.749  -9.615   1.509  0.00  0.00    +0.000 NA
ATOM     12  S   UNL     1      -3.334  -8.588   2.722  0.00  0.00    +0.000 S 
ATOM     13  N   UNL     1      -4.799  -8.205   1.958  0.00  0.00    +0.000 NA
ATOM     14  C   UNL     1      -4.781  -8.888   0.788  0.00  0.00    +0.000 A 
ENDBRANCH   5   6
BRANCH   2  15
ATOM     15  C   UNL     1      -8.076  -4.469  -0.625  0.00  0.00    +0.000 C 
ATOM     16  C   UNL     1      -9.656  -4.118  -0.786  0.00  0.00    +0.000 C 
ATOM     17  C   UNL     1      -9.562  -2.693  -1.296  0.00  0.00    +0.000 C 
ATOM     18  N   UNL     1      -8.913  -1.980  -0.266  0.00  0.00    +0.000 NA
ATOM     19  C   UNL     1      -7.623  -1.406  -0.545  0.00  0.00    +0.000 C 
ATOM     20  C   UNL     1      -6.860  -1.758   0.758  0.00  0.00    +0.000 C 
ATOM     21  O   UNL     1      -6.645  -3.104   0.596  0.00  0.00    +0.000 OA
ATOM     22  C   UNL     1      -7.874  -3.863   1.012  0.00  0.00    +0.000 C 
ATOM     23  C   UNL     1      -8.977  -2.668   0.931  0.00  0.00    +0.000 C 
ENDBRANCH   2  15
TORSDOF 2
ENDMDL
MODEL 3
REMARK VINA RESULT:      -5.0      5.071      7.662
REMARK  Name = 
REMARK  2 active torsions:
REMARK  status: ('A' for Active; 'I' for Inactive)
REMARK    1  A    between atoms: N_2  and  C_15
REMARK    2  A    between atoms: N_5  and  C_6
REMARK                            x       y       z     vdW  Elec       q    Type
REMARK                         _______ _______ _______ _____ _____    ______ ____
ROOT
ATOM      1  C   UNL     1     -14.049  -5.475   2.253  0.00  0.00    +0.000 C 
ATOM      2  N   UNL     1     -14.103  -5.384   0.879  0.00  0.00    +0.000 N 
ATOM      3  C   UNL     1     -14.305  -6.557   0.072  0.00  0.00    +0.000 C 
ATOM      4  O   UNL     1     -14.365  -6.523  -1.197  0.00  0.00    +0.000 OA
ATOM      5  N   UNL     1     -14.451  -7.840   0.642  0.00  0.00    +0.000 NA
ENDROOT
BRANCH   5   6
ATOM      6  C   UNL     1     -14.647  -8.991  -0.162  0.00  0.00    +0.000 A 
ATOM      7  C   UNL     1     -13.551  -9.644  -0.670  0.00  0.00    +0.000 A 
ATOM      8  C   UNL     1     -13.678 -10.756  -1.451  0.00  0.00    +0.000 A 
ATOM      9  C   UNL     1     -14.969 -11.197  -1.710  0.00  0.00    +0.000 A 
ATOM     10  C   UNL     1     -16.103 -10.561  -1.214  0.00  0.00    +0.000 A 
ATOM     11  N   UNL     1     -17.353 -10.953  -1.442  0.00  0.00    +0.000 NA
ATOM     12  S   UNL     1     -18.335  -9.845  -0.619  0.00  0.00    +0.000 S 
ATOM     13  N   UNL     1     -17.073  -8.897   0.002  0.00  0.00    +0.000 NA
ATOM     14  C   UNL     1     -15.935  -9.475  -0.452  0.00  0.00    +0.000 A 
ENDBRANCH   5   6
BRANCH   2  15
ATOM     15  C   UNL     1     -13.966  -4.097   0.035  0.00  0.00    +0.000 C 
ATOM     16  C   UNL     1     -14.544  -3.050   1.137  0.00  0.00    +0.000 C 
ATOM     17  C   UNL     1     -14.437  -1.755   0.355  0.00  0.00    +0.000 C 
ATOM     18  N   UNL     1     -13.060  -1.607   0.083  0.00  0.00    +0.000 NA
ATOM     19  C   UNL     1     -12.634  -1.636  -1.291  0.00  0.00    +0.000 C 
ATOM     20  C   UNL     1     -11.363  -2.520  -1.182  0.00  0.00    +0.000 C 
ATOM     21  O   UNL     1     -11.911  -3.765  -0.998  0.00  0.00    +0.000 OA
ATOM     22  C   UNL     1     -12.265  -3.950   0.451  0.00  0.00    +0.000 C 
ATOM     23  C   UNL     1     -12.299  -2.393   0.927  0.00  0.00    +0.000 C 
ENDBRANCH   2  15
TORSDOF 2
ENDMDL
MODEL 4
REMARK VINA RESULT:      -5.0      4.782     10.130
REMARK  Name = 
REMARK  2 active torsions:
REMARK  status: ('A' for Active; 'I' for Inactive)
REMARK    1  A    between atoms: N_2  and  C_15
REMARK    2  A    between atoms: N_5  and  C_6
REMARK                            x       y       z     vdW  Elec       q    Type
REMARK                         _______ _______ _______ _____ _____    ______ ____
ROOT
ATOM      1  C   UNL     1      -8.049  -0.996  -0.360  0.00  0.00    +0.000 C 
ATOM      2  N   UNL     1      -8.351  -2.299  -0.694  0.00  0.00    +0.000 N 
ATOM      3  C   UNL     1      -9.717  -2.738  -0.783  0.00  0.00    +0.000 C 
ATOM      4  O   UNL     1     -10.044  -3.927  -1.089  0.00  0.00    +0.000 OA
ATOM      5  N   UNL     1     -10.799  -1.866  -0.533  0.00  0.00    +0.000 NA
ENDROOT
BRANCH   5   6
ATOM      6  C   UNL     1     -12.143  -2.309  -0.621  0.00  0.00    +0.000 A 
ATOM      7  C   UNL     1     -12.719  -2.449  -1.860  0.00  0.00    +0.000 A 
ATOM      8  C   UNL     1     -14.009  -2.869  -2.007  0.00  0.00    +0.000 A 
ATOM      9  C   UNL     1     -14.714  -3.149  -0.844  0.00  0.00    +0.000 A 
ATOM     10  C   UNL     1     -14.165  -3.019   0.428  0.00  0.00    +0.000 A 
ATOM     11  N   UNL     1     -14.810  -3.276   1.562  0.00  0.00    +0.000 NA
ATOM     12  S   UNL     1     -13.698  -2.958   2.799  0.00  0.00    +0.000 S 
ATOM     13  N   UNL     1     -12.416  -2.494   1.789  0.00  0.00    +0.000 NA
ATOM     14  C   UNL     1     -12.897  -2.604   0.528  0.00  0.00    +0.000 A 
ENDBRANCH   5   6
BRANCH   2  15
ATOM     15  C   UNL     1      -7.342  -3.427  -1.005  0.00  0.00    +0.000 C 
ATOM     16  C   UNL     1      -6.020  -2.495  -1.185  0.00  0.00    +0.000 C 
ATOM     17  C   UNL     1      -4.987  -3.558  -1.501  0.00  0.00    +0.000 C 
ATOM     18  N   UNL     1      -4.958  -4.389  -0.360  0.00  0.00    +0.000 NA
ATOM     19  C   UNL     1      -5.367  -5.760  -0.508  0.00  0.00    +0.000 C 
ATOM     20  C   UNL     1      -6.227  -5.947   0.770  0.00  0.00    +0.000 C 
ATOM     21  O   UNL     1      -7.360  -5.245   0.443  0.00  0.00    +0.000 OA
ATOM     22  C   UNL     1      -7.139  -3.781   0.704  0.00  0.00    +0.000 C 
ATOM     23  C   UNL     1      -5.512  -3.749   0.733  0.00  0.00    +0.000 C 
ENDBRANCH   2  15
TORSDOF 2
ENDMDL
MODEL 5
REMARK VINA RESULT:      -4.9      4.751      6.486
REMARK  Name = 
REMARK  2 active torsions:
REMARK  status: ('A' for Active; 'I' for Inactive)
REMARK    1  A    between atoms: N_2  and  C_15
REMARK    2  A    between atoms: N_5  and  C_6
REMARK                            x       y       z     vdW  Elec       q    Type
REMARK                         _______ _______ _______ _____ _____    ______ ____
ROOT
ATOM      1  C   UNL     1     -12.776  -8.371   1.013  0.00  0.00    +0.000 C 
ATOM      2  N   UNL     1     -13.574  -7.946  -0.028  0.00  0.00    +0.000 N 
ATOM      3  C   UNL     1     -13.643  -6.554  -0.382  0.00  0.00    +0.000 C 
ATOM      4  O   UNL     1     -14.362  -6.116  -1.334  0.00  0.00    +0.000 OA
ATOM      5  N   UNL     1     -12.909  -5.570   0.314  0.00  0.00    +0.000 NA
ENDROOT
BRANCH   5   6
ATOM      6  C   UNL     1     -12.985  -4.199  -0.041  0.00  0.00    +0.000 A 
ATOM      7  C   UNL     1     -11.991  -3.655  -0.817  0.00  0.00    +0.000 A 
ATOM      8  C   UNL     1     -12.009  -2.342  -1.188  0.00  0.00    +0.000 A 
ATOM      9  C   UNL     1     -13.082  -1.579  -0.745  0.00  0.00    +0.000 A 
ATOM     10  C   UNL     1     -14.108  -2.095   0.042  0.00  0.00    +0.000 A 
ATOM     11  N   UNL     1     -15.148  -1.396   0.485  0.00  0.00    +0.000 NA
ATOM     12  S   UNL     1     -16.080  -2.488   1.384  0.00  0.00    +0.000 S 
ATOM     13  N   UNL     1     -15.074  -3.834   1.151  0.00  0.00    +0.000 NA
ATOM     14  C   UNL     1     -14.051  -3.387   0.384  0.00  0.00    +0.000 A 
ENDBRANCH   5   6
BRANCH   2  15
ATOM     15  C   UNL     1     -14.466  -8.833  -0.925  0.00  0.00    +0.000 C 
ATOM     16  C   UNL     1     -13.530 -10.164  -0.917  0.00  0.00    +0.000 C 
ATOM     17  C   UNL     1     -14.361 -11.078  -1.796  0.00  0.00    +0.000 C 
ATOM     18  N   UNL     1     -15.586 -11.229  -1.110  0.00  0.00    +0.000 NA
ATOM     19  C   UNL     1     -16.780 -10.725  -1.735  0.00  0.00    +0.000 C 
ATOM     20  C   UNL     1     -17.481 -10.055  -0.525  0.00  0.00    +0.000 C 
ATOM     21  O   UNL     1     -16.718  -8.927  -0.356  0.00  0.00    +0.000 OA
ATOM     22  C   UNL     1     -15.487  -9.266   0.438  0.00  0.00    +0.000 C 
ATOM     23  C   UNL     1     -15.455 -10.879   0.221  0.00  0.00    +0.000 C 
ENDBRANCH   2  15
TORSDOF 2
ENDMDL
