MODEL 1
REMARK VINA RESULT:      -5.1      0.000      0.000
REMARK  Name = 
REMARK  3 active torsions:
REMARK  status: ('A' for Active; 'I' for Inactive)
REMARK    1  A    between atoms: N_3  and  C_4
REMARK    2  A    between atoms: C_4  and  C_5
REMARK    3  A    between atoms: N_12  and  C_13
REMARK                            x       y       z     vdW  Elec       q    Type
REMARK                         _______ _______ _______ _____ _____    ______ ____
ROOT
ATOM      1  O   UNL     1     -11.395  -4.366  -1.078  0.00  0.00    +0.000 OA
ATOM      2  C   UNL     1     -11.426  -3.178  -0.674  0.00  0.00    +0.000 C 
ATOM      3  N   UNL     1     -12.612  -2.652  -0.122  0.00  0.00    +0.000 NA
ATOM      4  N   UNL     1     -10.202  -2.504  -0.839  0.00  0.00    +0.000 NA
ENDROOT
BRANCH   4   5
ATOM      5  C   UNL     1      -8.981  -3.285  -1.486  0.00  0.00    +0.000 C 
ATOM      6  C   UNL     1      -8.138  -3.620  -0.119  0.00  0.00    +0.000 C 
ATOM      7  C   UNL     1      -7.744  -2.336  -1.104  0.00  0.00    +0.000 C 
ATOM      8  C   UNL     1      -6.529  -2.365  -0.485  0.00  0.00    +0.000 C 
ATOM      9  C   UNL     1      -6.854  -1.074   0.303  0.00  0.00    +0.000 C 
ATOM     10  C   UNL     1      -7.982  -0.993  -0.697  0.00  0.00    +0.000 C 
ENDBRANCH   4   5
BRANCH   3  11
ATOM     11  C   UNL     1     -13.753  -3.554  -0.060  0.00  0.00    +0.000 C 
BRANCH  11  12
ATOM     12  C   UNL     1     -14.958  -2.636  -0.099  0.00  0.00    +0.000 A 
ATOM     13  C   UNL     1     -14.889  -1.366   0.426  0.00  0.00    +0.000 A 
ATOM     14  C   UNL     1     -15.984  -0.537   0.392  0.00  0.00    +0.000 A 
ATOM     15  C   UNL     1     -17.156  -0.985  -0.173  0.00  0.00    +0.000 A 
ATOM     16  C   UNL     1     -17.233  -2.242  -0.697  0.00  0.00    +0.000 A 
ATOM     17 BR   UNL     1     -18.869  -2.871  -1.485  0.00  0.00    +0.000 Br
ATOM     18  C   UNL     1     -16.136  -3.073  -0.663  0.00  0.00    +0.000 A 
ENDBRANCH  11  12
ENDBRANCH   3  11
TORSDOF 3
ENDMDL
MODEL 2
REMARK VINA RESULT:      -5.1      7.590      8.686
REMARK  Name = 
REMARK  3 active torsions:
REMARK  status: ('A' for Active; 'I' for Inactive)
REMARK    1  A    between atoms: N_3  and  C_4
REMARK    2  A    between atoms: C_4  and  C_5
REMARK    3  A    between atoms: N_12  and  C_13
REMARK                            x       y       z     vdW  Elec       q    Type
REMARK                         _______ _______ _______ _____ _____    ______ ____
ROOT
ATOM      1  O   UNL     1     -14.187 -10.475   1.315  0.00  0.00    +0.000 OA
ATOM      2  C   UNL     1     -14.322 -10.175   0.104  0.00  0.00    +0.000 C 
ATOM      3  N   UNL     1     -15.496 -10.537  -0.587  0.00  0.00    +0.000 NA
ATOM      4  N   UNL     1     -13.216  -9.479  -0.421  0.00  0.00    +0.000 NA
ENDROOT
BRANCH   4   5
ATOM      5  C   UNL     1     -11.986  -9.169   0.534  0.00  0.00    +0.000 C 
ATOM      6  C   UNL     1     -11.157  -8.143  -0.443  0.00  0.00    +0.000 C 
ATOM      7  C   UNL     1     -10.756  -9.754  -0.315  0.00  0.00    +0.000 C 
ATOM      8  C   UNL     1      -9.548  -9.390  -0.832  0.00  0.00    +0.000 C 
ATOM      9  C   UNL     1      -9.885 -10.050  -2.191  0.00  0.00    +0.000 C 
ATOM     10  C   UNL     1     -11.002 -10.663  -1.383  0.00  0.00    +0.000 C 
ENDBRANCH   4   5
BRANCH   3  11
ATOM     11  C   UNL     1     -16.501 -11.258   0.180  0.00  0.00    +0.000 C 
BRANCH  11  12
ATOM     12  C   UNL     1     -17.777 -11.086  -0.619  0.00  0.00    +0.000 A 
ATOM     13  C   UNL     1     -17.728 -10.775  -1.959  0.00  0.00    +0.000 A 
ATOM     14  C   UNL     1     -18.885 -10.617  -2.681  0.00  0.00    +0.000 A 
ATOM     15  C   UNL     1     -20.101 -10.771  -2.055  0.00  0.00    +0.000 A 
ATOM     16  C   UNL     1     -20.160 -11.080  -0.728  0.00  0.00    +0.000 A 
ATOM     17 BR   UNL     1     -21.856 -11.294   0.150  0.00  0.00    +0.000 Br
ATOM     18  C   UNL     1     -18.999 -11.239  -0.004  0.00  0.00    +0.000 A 
ENDBRANCH  11  12
ENDBRANCH   3  11
TORSDOF 3
ENDMDL
MODEL 3
REMARK VINA RESULT:      -5.1      4.257      8.732
REMARK  Name = 
REMARK  3 active torsions:
REMARK  status: ('A' for Active; 'I' for Inactive)
REMARK    1  A    between atoms: N_3  and  C_4
REMARK    2  A    between atoms: C_4  and  C_5
REMARK    3  A    between atoms: N_12  and  C_13
REMARK                            x       y       z     vdW  Elec       q    Type
REMARK                         _______ _______ _______ _____ _____    ______ ____
ROOT
ATOM      1  O   UNL     1      -8.187  -0.941  -0.415  0.00  0.00    +0.000 OA
ATOM      2  C   UNL     1      -8.511  -2.145  -0.563  0.00  0.00    +0.000 C 
ATOM      3  N   UNL     1      -7.573  -3.072  -1.062  0.00  0.00    +0.000 NA
ATOM      4  N   UNL     1      -9.841  -2.411  -0.187  0.00  0.00    +0.000 NA
ENDROOT
BRANCH   4   5
ATOM      5  C   UNL     1     -10.736  -1.217   0.355  0.00  0.00    +0.000 C 
ATOM      6  C   UNL     1     -11.917  -2.092   1.084  0.00  0.00    +0.000 C 
ATOM      7  C   UNL     1     -12.111  -1.450  -0.440  0.00  0.00    +0.000 C 
ATOM      8  C   UNL     1     -13.448  -1.620  -0.231  0.00  0.00    +0.000 C 
ATOM      9  C   UNL     1     -13.492  -2.808  -1.221  0.00  0.00    +0.000 C 
ATOM     10  C   UNL     1     -12.128  -2.281  -1.595  0.00  0.00    +0.000 C 
ENDBRANCH   4   5
BRANCH   3  11
ATOM     11  C   UNL     1      -6.254  -2.548  -1.382  0.00  0.00    +0.000 C 
BRANCH  11  12
ATOM     12  C   UNL     1      -5.302  -3.651  -0.965  0.00  0.00    +0.000 A 
ATOM     13  C   UNL     1      -4.018  -3.356  -0.566  0.00  0.00    +0.000 A 
ATOM     14  C   UNL     1      -3.157  -4.358  -0.191  0.00  0.00    +0.000 A 
ATOM     15  C   UNL     1      -3.585  -5.665  -0.217  0.00  0.00    +0.000 A 
ATOM     16  C   UNL     1      -4.856  -5.967  -0.609  0.00  0.00    +0.000 A 
ATOM     17 BR   UNL     1      -5.456  -7.793  -0.648  0.00  0.00    +0.000 Br
ATOM     18  C   UNL     1      -5.720  -4.964  -0.985  0.00  0.00    +0.000 A 
ENDBRANCH  11  12
ENDBRANCH   3  11
TORSDOF 3
ENDMDL
MODEL 4
REMARK VINA RESULT:      -5.1      2.939      7.706
REMARK  Name = 
REMARK  3 active torsions:
REMARK  status: ('A' for Active; 'I' for Inactive)
REMARK    1  A    between atoms: N_3  and  C_4
REMARK    2  A    between atoms: C_4  and  C_5
REMARK    3  A    between atoms: N_12  and  C_13
REMARK                            x       y       z     vdW  Elec       q    Type
REMARK                         _______ _______ _______ _____ _____    ______ ____
ROOT
ATOM      1  O   UNL     1     -12.941  -0.738  -0.607  0.00  0.00    +0.000 OA
ATOM      2  C   UNL     1     -13.244  -1.954  -0.533  0.00  0.00    +0.000 C 
ATOM      3  N   UNL     1     -12.322  -2.938  -0.944  0.00  0.00    +0.000 NA
ATOM      4  N   UNL     1     -14.537  -2.173  -0.020  0.00  0.00    +0.000 NA
ENDROOT
BRANCH   4   5
ATOM      5  C   UNL     1     -15.420  -0.918   0.387  0.00  0.00    +0.000 C 
ATOM      6  C   UNL     1     -16.538  -1.681   1.313  0.00  0.00    +0.000 C 
ATOM      7  C   UNL     1     -16.835  -1.283  -0.277  0.00  0.00    +0.000 C 
ATOM      8  C   UNL     1     -18.154  -1.432   0.038  0.00  0.00    +0.000 C 
ATOM      9  C   UNL     1     -18.235  -2.759  -0.753  0.00  0.00    +0.000 C 
ATOM     10  C   UNL     1     -16.906  -2.283  -1.287  0.00  0.00    +0.000 C 
ENDBRANCH   4   5
BRANCH   3  11
ATOM     11  C   UNL     1     -11.042  -2.456  -1.442  0.00  0.00    +0.000 C 
BRANCH  11  12
ATOM     12  C   UNL     1     -10.058  -3.542  -1.057  0.00  0.00    +0.000 A 
ATOM     13  C   UNL     1      -8.764  -3.224  -0.714  0.00  0.00    +0.000 A 
ATOM     14  C   UNL     1      -7.872  -4.210  -0.368  0.00  0.00    +0.000 A 
ATOM     15  C   UNL     1      -8.281  -5.524  -0.366  0.00  0.00    +0.000 A 
ATOM     16  C   UNL     1      -9.562  -5.848  -0.704  0.00  0.00    +0.000 A 
ATOM     17 BR   UNL     1     -10.136  -7.683  -0.705  0.00  0.00    +0.000 Br
ATOM     18  C   UNL     1     -10.456  -4.860  -1.051  0.00  0.00    +0.000 A 
ENDBRANCH  11  12
ENDBRANCH   3  11
TORSDOF 3
ENDMDL
MODEL 5
REMARK VINA RESULT:      -5.0      2.810      4.001
REMARK  Name = 
REMARK  3 active torsions:
REMARK  status: ('A' for Active; 'I' for Inactive)
REMARK    1  A    between atoms: N_3  and  C_4
REMARK    2  A    between atoms: C_4  and  C_5
REMARK    3  A    between atoms: N_12  and  C_13
REMARK                            x       y       z     vdW  Elec       q    Type
REMARK                         _______ _______ _______ _____ _____    ______ ____
ROOT
ATOM      1  O   UNL     1      -8.393  -1.820   0.287  0.00  0.00    +0.000 OA
ATOM      2  C   UNL     1      -8.596  -2.510  -0.743  0.00  0.00    +0.000 C 
ATOM      3  N   UNL     1      -9.912  -2.727  -1.199  0.00  0.00    +0.000 NA
ATOM      4  N   UNL     1      -7.411  -2.994  -1.327  0.00  0.00    +0.000 NA
ENDROOT
BRANCH   4   5
ATOM      5  C   UNL     1      -6.021  -2.631  -0.650  0.00  0.00    +0.000 C 
ATOM      6  C   UNL     1      -5.013  -3.236  -1.794  0.00  0.00    +0.000 C 
ATOM      7  C   UNL     1      -5.383  -4.084  -0.410  0.00  0.00    +0.000 C 
ATOM      8  C   UNL     1      -4.264  -4.815  -0.681  0.00  0.00    +0.000 C 
ATOM      9  C   UNL     1      -5.115  -6.034  -1.110  0.00  0.00    +0.000 C 
ATOM     10  C   UNL     1      -6.215  -5.238  -0.451  0.00  0.00    +0.000 C 
ENDBRANCH   4   5
BRANCH   3  11
ATOM     11  C   UNL     1     -10.977  -2.117  -0.417  0.00  0.00    +0.000 C 
BRANCH  11  12
ATOM     12  C   UNL     1     -12.186  -2.989  -0.687  0.00  0.00    +0.000 A 
ATOM     13  C   UNL     1     -13.307  -2.465  -1.290  0.00  0.00    +0.000 A 
ATOM     14  C   UNL     1     -14.403  -3.257  -1.532  0.00  0.00    +0.000 A 
ATOM     15  C   UNL     1     -14.376  -4.582  -1.164  0.00  0.00    +0.000 A 
ATOM     16  C   UNL     1     -13.269  -5.111  -0.566  0.00  0.00    +0.000 A 
ATOM     17 BR   UNL     1     -13.229  -6.961  -0.050  0.00  0.00    +0.000 Br
ATOM     18  C   UNL     1     -12.171  -4.318  -0.325  0.00  0.00    +0.000 A 
ENDBRANCH  11  12
ENDBRANCH   3  11
TORSDOF 3
ENDMDL
