MODEL 1
REMARK VINA RESULT:      -5.4      0.000      0.000
REMARK  Name = 
REMARK  6 active torsions:
REMARK  status: ('A' for Active; 'I' for Inactive)
REMARK    1  A    between atoms: C_2  and  C_3
REMARK    2  A    between atoms: C_6  and  N_7
REMARK    3  A    between atoms: N_10  and  C_11
REMARK    4  A    between atoms: C_11  and  C_12
REMARK    5  A    between atoms: N_15  and  C_16
REMARK    6  A    between atoms: C_16  and  C_17
REMARK                            x       y       z     vdW  Elec       q    Type
REMARK                         _______ _______ _______ _____ _____    ______ ____
ROOT
ATOM      1  N   UNL     1     -10.730  -7.512   0.687  0.00  0.00    +0.000 NA
ATOM      2  C   UNL     1     -10.021  -6.553  -0.088  0.00  0.00    +0.000 C 
ATOM      3  O   UNL     1     -10.223  -6.490  -1.334  0.00  0.00    +0.000 OA
ATOM      4  N   UNL     1      -9.084  -5.643   0.445  0.00  0.00    +0.000 NA
ENDROOT
BRANCH   1   8
ATOM      5  C   UNL     1     -13.419 -10.146  -1.287  0.00  0.00    +0.000 A 
ATOM      6  C   UNL     1     -13.863  -8.982  -0.679  0.00  0.00    +0.000 A 
ATOM      7  C   UNL     1     -13.010  -8.110  -0.032  0.00  0.00    +0.000 A 
ATOM      8  C   UNL     1     -11.664  -8.389   0.023  0.00  0.00    +0.000 A 
ATOM      9  N   UNL     1     -11.250  -9.522  -0.570  0.00  0.00    +0.000 NA
ATOM     10  C   UNL     1     -12.063 -10.387  -1.206  0.00  0.00    +0.000 A 
BRANCH   5  12
ATOM     11  C   UNL     1     -14.728 -10.511  -3.353  0.00  0.00    +0.000 C 
ATOM     12  C   UNL     1     -14.362 -11.070  -1.978  0.00  0.00    +0.000 C 
ENDBRANCH   5  12
ENDBRANCH   1   8
BRANCH   4  13
ATOM     13  C   UNL     1      -8.381  -4.672  -0.413  0.00  0.00    +0.000 C 
BRANCH  13  14
ATOM     14  C   UNL     1      -8.422  -3.288   0.513  0.00  0.00    +0.000 C 
ATOM     15  C   UNL     1      -7.362  -2.478  -0.471  0.00  0.00    +0.000 C 
ATOM     16  C   UNL     1      -8.559  -1.528  -0.416  0.00  0.00    +0.000 C 
ATOM     17  N   UNL     1      -9.526  -2.598  -0.368  0.00  0.00    +0.000 NA
BRANCH  17  18
ATOM     18  C   UNL     1     -10.665  -2.312   0.461  0.00  0.00    +0.000 C 
BRANCH  18  19
ATOM     19  C   UNL     1     -11.890  -2.767  -0.228  0.00  0.00    +0.000 A 
ATOM     20  C   UNL     1     -12.419  -3.982   0.194  0.00  0.00    +0.000 A 
ATOM     21  C   UNL     1     -13.554  -4.499  -0.388  0.00  0.00    +0.000 A 
ATOM     22  C   UNL     1     -14.149  -3.787  -1.396  0.00  0.00    +0.000 A 
ATOM     23  C   UNL     1     -13.628  -2.583  -1.818  0.00  0.00    +0.000 A 
ATOM     24  C   UNL     1     -12.501  -2.070  -1.237  0.00  0.00    +0.000 A 
ENDBRANCH  18  19
ENDBRANCH  17  18
ENDBRANCH  13  14
ENDBRANCH   4  13
TORSDOF 6
ENDMDL
MODEL 2
REMARK VINA RESULT:      -5.3      4.316      7.026
REMARK  Name = 
REMARK  6 active torsions:
REMARK  status: ('A' for Active; 'I' for Inactive)
REMARK    1  A    between atoms: C_2  and  C_3
REMARK    2  A    between atoms: C_6  and  N_7
REMARK    3  A    between atoms: N_10  and  C_11
REMARK    4  A    between atoms: C_11  and  C_12
REMARK    5  A    between atoms: N_15  and  C_16
REMARK    6  A    between atoms: C_16  and  C_17
REMARK                            x       y       z     vdW  Elec       q    Type
REMARK                         _______ _______ _______ _____ _____    ______ ____
ROOT
ATOM      1  N   UNL     1     -12.179  -2.378  -1.896  0.00  0.00    +0.000 NA
ATOM      2  C   UNL     1     -11.035  -2.877  -1.214  0.00  0.00    +0.000 C 
ATOM      3  O   UNL     1     -11.155  -3.304  -0.031  0.00  0.00    +0.000 OA
ATOM      4  N   UNL     1      -9.741  -2.932  -1.775  0.00  0.00    +0.000 NA
ENDROOT
BRANCH   1   8
ATOM      5  C   UNL     1     -15.899  -2.300   0.159  0.00  0.00    +0.000 A 
ATOM      6  C   UNL     1     -15.611  -3.279  -0.780  0.00  0.00    +0.000 A 
ATOM      7  C   UNL     1     -14.411  -3.326  -1.461  0.00  0.00    +0.000 A 
ATOM      8  C   UNL     1     -13.449  -2.375  -1.212  0.00  0.00    +0.000 A 
ATOM      9  N   UNL     1     -13.744  -1.432  -0.300  0.00  0.00    +0.000 NA
ATOM     10  C   UNL     1     -14.906  -1.366   0.376  0.00  0.00    +0.000 A 
BRANCH   5  12
ATOM     11  C   UNL     1     -18.299  -1.746  -0.046  0.00  0.00    +0.000 C 
ATOM     12  C   UNL     1     -17.202  -2.272   0.879  0.00  0.00    +0.000 C 
ENDBRANCH   5  12
ENDBRANCH   1   8
BRANCH   4  13
ATOM     13  C   UNL     1      -8.595  -3.461  -1.015  0.00  0.00    +0.000 C 
BRANCH  13  14
ATOM     14  C   UNL     1      -7.378  -2.402  -1.429  0.00  0.00    +0.000 C 
ATOM     15  C   UNL     1      -7.650  -1.420  -0.121  0.00  0.00    +0.000 C 
ATOM     16  C   UNL     1      -6.162  -1.745   0.009  0.00  0.00    +0.000 C 
ATOM     17  N   UNL     1      -6.313  -3.087  -0.497  0.00  0.00    +0.000 NA
BRANCH  17  18
ATOM     18  C   UNL     1      -5.210  -3.530  -1.306  0.00  0.00    +0.000 C 
BRANCH  18  19
ATOM     19  C   UNL     1      -4.856  -4.912  -0.926  0.00  0.00    +0.000 A 
ATOM     20  C   UNL     1      -3.598  -5.091  -0.359  0.00  0.00    +0.000 A 
ATOM     21  C   UNL     1      -3.166  -6.341   0.022  0.00  0.00    +0.000 A 
ATOM     22  C   UNL     1      -4.007  -7.405  -0.171  0.00  0.00    +0.000 A 
ATOM     23  C   UNL     1      -5.254  -7.233  -0.732  0.00  0.00    +0.000 A 
ATOM     24  C   UNL     1      -5.682  -5.990  -1.110  0.00  0.00    +0.000 A 
ENDBRANCH  18  19
ENDBRANCH  17  18
ENDBRANCH  13  14
ENDBRANCH   4  13
TORSDOF 6
ENDMDL
MODEL 3
REMARK VINA RESULT:      -5.1      3.417      4.305
REMARK  Name = 
REMARK  6 active torsions:
REMARK  status: ('A' for Active; 'I' for Inactive)
REMARK    1  A    between atoms: C_2  and  C_3
REMARK    2  A    between atoms: C_6  and  N_7
REMARK    3  A    between atoms: N_10  and  C_11
REMARK    4  A    between atoms: C_11  and  C_12
REMARK    5  A    between atoms: N_15  and  C_16
REMARK    6  A    between atoms: C_16  and  C_17
REMARK                            x       y       z     vdW  Elec       q    Type
REMARK                         _______ _______ _______ _____ _____    ______ ____
ROOT
ATOM      1  N   UNL     1     -14.813  -7.601   0.648  0.00  0.00    +0.000 NA
ATOM      2  C   UNL     1     -14.254  -6.595  -0.188  0.00  0.00    +0.000 C 
ATOM      3  O   UNL     1     -14.621  -6.516  -1.395  0.00  0.00    +0.000 OA
ATOM      4  N   UNL     1     -13.293  -5.655   0.241  0.00  0.00    +0.000 NA
ENDROOT
BRANCH   1   8
ATOM      5  C   UNL     1     -17.748 -10.218  -0.965  0.00  0.00    +0.000 A 
ATOM      6  C   UNL     1     -16.393 -10.462  -1.130  0.00  0.00    +0.000 A 
ATOM      7  C   UNL     1     -15.421  -9.627  -0.616  0.00  0.00    +0.000 A 
ATOM      8  C   UNL     1     -15.789  -8.506   0.090  0.00  0.00    +0.000 A 
ATOM      9  N   UNL     1     -17.106  -8.283   0.240  0.00  0.00    +0.000 NA
ATOM     10  C   UNL     1     -18.072  -9.082  -0.252  0.00  0.00    +0.000 A 
BRANCH   5  12
ATOM     11  C   UNL     1     -19.185 -10.664  -2.927  0.00  0.00    +0.000 C 
ATOM     12  C   UNL     1     -18.777 -11.134  -1.532  0.00  0.00    +0.000 C 
ENDBRANCH   5  12
ENDBRANCH   1   8
BRANCH   4  13
ATOM     13  C   UNL     1     -12.752  -4.636  -0.676  0.00  0.00    +0.000 C 
BRANCH  13  14
ATOM     14  C   UNL     1     -12.382  -3.387   0.362  0.00  0.00    +0.000 C 
ATOM     15  C   UNL     1     -11.365  -2.654  -0.722  0.00  0.00    +0.000 C 
ATOM     16  C   UNL     1     -12.339  -1.530  -0.365  0.00  0.00    +0.000 C 
ATOM     17  N   UNL     1     -13.467  -2.420  -0.238  0.00  0.00    +0.000 NA
BRANCH  17  18
ATOM     18  C   UNL     1     -14.382  -2.050   0.807  0.00  0.00    +0.000 C 
BRANCH  18  19
ATOM     19  C   UNL     1     -15.750  -1.997   0.254  0.00  0.00    +0.000 A 
ATOM     20  C   UNL     1     -16.295  -3.208  -0.158  0.00  0.00    +0.000 A 
ATOM     21  C   UNL     1     -17.561  -3.268  -0.696  0.00  0.00    +0.000 A 
ATOM     22  C   UNL     1     -18.271  -2.102  -0.816  0.00  0.00    +0.000 A 
ATOM     23  C   UNL     1     -17.735  -0.899  -0.409  0.00  0.00    +0.000 A 
ATOM     24  C   UNL     1     -16.478  -0.842   0.126  0.00  0.00    +0.000 A 
ENDBRANCH  18  19
ENDBRANCH  17  18
ENDBRANCH  13  14
ENDBRANCH   4  13
TORSDOF 6
ENDMDL
MODEL 4
REMARK VINA RESULT:      -5.0      3.614      5.241
REMARK  Name = 
REMARK  6 active torsions:
REMARK  status: ('A' for Active; 'I' for Inactive)
REMARK    1  A    between atoms: C_2  and  C_3
REMARK    2  A    between atoms: C_6  and  N_7
REMARK    3  A    between atoms: N_10  and  C_11
REMARK    4  A    between atoms: C_11  and  C_12
REMARK    5  A    between atoms: N_15  and  C_16
REMARK    6  A    between atoms: C_16  and  C_17
REMARK                            x       y       z     vdW  Elec       q    Type
REMARK                         _______ _______ _______ _____ _____    ______ ____
ROOT
ATOM      1  N   UNL     1     -11.197 -10.758  -0.891  0.00  0.00    +0.000 NA
ATOM      2  C   UNL     1     -10.544  -9.515  -0.661  0.00  0.00    +0.000 C 
ATOM      3  O   UNL     1     -11.234  -8.462  -0.554  0.00  0.00    +0.000 OA
ATOM      4  N   UNL     1      -9.146  -9.367  -0.540  0.00  0.00    +0.000 NA
ENDROOT
BRANCH   1   8
ATOM      5  C   UNL     1     -15.430 -10.796  -1.281  0.00  0.00    +0.000 A 
ATOM      6  C   UNL     1     -14.811 -11.101  -0.078  0.00  0.00    +0.000 A 
ATOM      7  C   UNL     1     -13.439 -11.096   0.074  0.00  0.00    +0.000 A 
ATOM      8  C   UNL     1     -12.636 -10.778  -0.996  0.00  0.00    +0.000 A 
ATOM      9  N   UNL     1     -13.251 -10.485  -2.155  0.00  0.00    +0.000 NA
ATOM     10  C   UNL     1     -14.586 -10.484  -2.328  0.00  0.00    +0.000 A 
BRANCH   5  12
ATOM     11  C   UNL     1     -17.556 -11.227  -0.096  0.00  0.00    +0.000 C 
ATOM     12  C   UNL     1     -16.913 -10.810  -1.418  0.00  0.00    +0.000 C 
ENDBRANCH   5  12
ENDBRANCH   1   8
BRANCH   4  13
ATOM     13  C   UNL     1      -8.530  -8.050  -0.301  0.00  0.00    +0.000 C 
BRANCH  13  14
ATOM     14  C   UNL     1      -7.059  -8.464   0.361  0.00  0.00    +0.000 C 
ATOM     15  C   UNL     1      -6.746  -9.607  -0.798  0.00  0.00    +0.000 C 
ATOM     16  C   UNL     1      -5.505  -8.716  -0.864  0.00  0.00    +0.000 C 
ATOM     17  N   UNL     1      -6.241  -7.508  -0.582  0.00  0.00    +0.000 NA
BRANCH  17  18
ATOM     18  C   UNL     1      -5.519  -6.567   0.230  0.00  0.00    +0.000 C 
BRANCH  18  19
ATOM     19  C   UNL     1      -5.733  -5.206  -0.302  0.00  0.00    +0.000 A 
ATOM     20  C   UNL     1      -6.926  -4.586   0.053  0.00  0.00    +0.000 A 
ATOM     21  C   UNL     1      -7.227  -3.320  -0.398  0.00  0.00    +0.000 A 
ATOM     22  C   UNL     1      -6.320  -2.686  -1.206  0.00  0.00    +0.000 A 
ATOM     23  C   UNL     1      -5.136  -3.297  -1.560  0.00  0.00    +0.000 A 
ATOM     24  C   UNL     1      -4.839  -4.554  -1.111  0.00  0.00    +0.000 A 
ENDBRANCH  18  19
ENDBRANCH  17  18
ENDBRANCH  13  14
ENDBRANCH   4  13
TORSDOF 6
ENDMDL
MODEL 5
REMARK VINA RESULT:      -4.9      4.539      6.142
REMARK  Name = 
REMARK  6 active torsions:
REMARK  status: ('A' for Active; 'I' for Inactive)
REMARK    1  A    between atoms: C_2  and  C_3
REMARK    2  A    between atoms: C_6  and  N_7
REMARK    3  A    between atoms: N_10  and  C_11
REMARK    4  A    between atoms: C_11  and  C_12
REMARK    5  A    between atoms: N_15  and  C_16
REMARK    6  A    between atoms: C_16  and  C_17
REMARK                            x       y       z     vdW  Elec       q    Type
REMARK                         _______ _______ _______ _____ _____    ______ ____
ROOT
ATOM      1  N   UNL     1     -14.518  -7.973   0.558  0.00  0.00    +0.000 NA
ATOM      2  C   UNL     1     -15.012  -6.807  -0.090  0.00  0.00    +0.000 C 
ATOM      3  O   UNL     1     -14.464  -6.411  -1.157  0.00  0.00    +0.000 OA
ATOM      4  N   UNL     1     -16.098  -6.040   0.383  0.00  0.00    +0.000 NA
ENDROOT
BRANCH   1   8
ATOM      5  C   UNL     1     -11.170  -9.974  -1.130  0.00  0.00    +0.000 A 
ATOM      6  C   UNL     1     -12.460 -10.455  -1.297  0.00  0.00    +0.000 A 
ATOM      7  C   UNL     1     -13.563  -9.823  -0.759  0.00  0.00    +0.000 A 
ATOM      8  C   UNL     1     -13.399  -8.672  -0.026  0.00  0.00    +0.000 A 
ATOM      9  N   UNL     1     -12.142  -8.219   0.127  0.00  0.00    +0.000 NA
ATOM     10  C   UNL     1     -11.051  -8.817  -0.387  0.00  0.00    +0.000 A 
BRANCH   5  12
ATOM     11  C   UNL     1      -9.884 -10.345  -3.209  0.00  0.00    +0.000 C 
ATOM     12  C   UNL     1      -9.996 -10.676  -1.721  0.00  0.00    +0.000 C 
ENDBRANCH   5  12
ENDBRANCH   1   8
BRANCH   4  13
ATOM     13  C   UNL     1     -16.562  -4.841  -0.337  0.00  0.00    +0.000 C 
BRANCH  13  14
ATOM     14  C   UNL     1     -16.216  -3.624   0.747  0.00  0.00    +0.000 C 
ATOM     15  C   UNL     1     -15.076  -2.934  -0.240  0.00  0.00    +0.000 C 
ATOM     16  C   UNL     1     -16.016  -1.764   0.053  0.00  0.00    +0.000 C 
ATOM     17  N   UNL     1     -17.195  -2.594   0.074  0.00  0.00    +0.000 NA
BRANCH  17  18
ATOM     18  C   UNL     1     -18.173  -2.187   1.046  0.00  0.00    +0.000 C 
BRANCH  18  19
ATOM     19  C   UNL     1     -19.489  -2.066   0.386  0.00  0.00    +0.000 A 
ATOM     20  C   UNL     1     -19.709  -2.899  -0.705  0.00  0.00    +0.000 A 
ATOM     21  C   UNL     1     -20.899  -2.859  -1.397  0.00  0.00    +0.000 A 
ATOM     22  C   UNL     1     -21.861  -1.976  -0.982  0.00  0.00    +0.000 A 
ATOM     23  C   UNL     1     -21.647  -1.148   0.099  0.00  0.00    +0.000 A 
ATOM     24  C   UNL     1     -20.465  -1.190   0.785  0.00  0.00    +0.000 A 
ENDBRANCH  18  19
ENDBRANCH  17  18
ENDBRANCH  13  14
ENDBRANCH   4  13
TORSDOF 6
ENDMDL
