MODEL 1
REMARK VINA RESULT:      -4.8      0.000      0.000
REMARK  Name = 
REMARK  4 active torsions:
REMARK  status: ('A' for Active; 'I' for Inactive)
REMARK    1  A    between atoms: N_4  and  C_5
REMARK    2  A    between atoms: C_5  and  C_7
REMARK    3  A    between atoms: N_15  and  C_16
REMARK    4  A    between atoms: C_19  and  C_20
REMARK                            x       y       z     vdW  Elec       q    Type
REMARK                         _______ _______ _______ _____ _____    ______ ____
ROOT
ATOM      1  C   UNL     1     -19.669  -2.397   0.170  0.00  0.00    +0.000 C 
ATOM      2  O   UNL     1     -20.206  -2.114   1.198  0.00  0.00    +0.000 OA
ATOM      3  N   UNL     1     -18.289  -2.387  -0.046  0.00  0.00    +0.000 N 
ATOM      4  C   UNL     1     -17.460  -2.606  -1.093  0.00  0.00    +0.000 C 
ATOM      5  C   UNL     1     -16.172  -3.470  -0.532  0.00  0.00    +0.000 C 
ATOM      6  C   UNL     1     -16.683  -3.616   1.018  0.00  0.00    +0.000 C 
ATOM      7  C   UNL     1     -17.357  -2.101   1.190  0.00  0.00    +0.000 C 
ATOM      8  C   UNL     1     -16.157  -1.305   0.401  0.00  0.00    +0.000 C 
ATOM      9  N   UNL     1     -15.320  -2.195  -0.144  0.00  0.00    +0.000 N 
ENDROOT
BRANCH   9  10
ATOM     10  C   UNL     1     -13.945  -2.253  -0.416  0.00  0.00    +0.000 A 
ATOM     11  C   UNL     1     -13.413  -2.404  -1.683  0.00  0.00    +0.000 A 
ATOM     12  N   UNL     1     -12.084  -2.495  -1.859  0.00  0.00    +0.000 NA
ATOM     13  C   UNL     1     -11.236  -2.441  -0.817  0.00  0.00    +0.000 A 
ATOM     14  C   UNL     1     -11.729  -2.291   0.451  0.00  0.00    +0.000 A 
ATOM     15  N   UNL     1     -13.078  -2.200   0.624  0.00  0.00    +0.000 NA
BRANCH  13  16
ATOM     16  C   UNL     1      -9.800  -2.553  -0.993  0.00  0.00    +0.000 C 
ATOM     17  N   UNL     1      -8.667  -2.662  -1.131  0.00  0.00    +0.000 NA
ENDBRANCH  13  16
ENDBRANCH   9  10
BRANCH   1  18
ATOM     18  C   UNL     1     -20.505  -2.841  -1.133  0.00  0.00    +0.000 C 
ATOM     19  C   UNL     1     -21.861  -1.907  -0.743  0.00  0.00    +0.000 C 
BRANCH  18  23
ATOM     20  C   UNL     1     -21.281  -6.568  -0.109  0.00  0.00    +0.000 C 
ATOM     21  C   UNL     1     -20.595  -5.386  -0.734  0.00  0.00    +0.000 C 
ATOM     22  O   UNL     1     -19.546  -5.541  -1.436  0.00  0.00    +0.000 OA
ATOM     23  N   UNL     1     -21.123  -4.145  -0.533  0.00  0.00    +0.000 NA
ENDBRANCH  18  23
ENDBRANCH   1  18
TORSDOF 4
ENDMDL
MODEL 2
REMARK VINA RESULT:      -4.8      1.810      3.134
REMARK  Name = 
REMARK  4 active torsions:
REMARK  status: ('A' for Active; 'I' for Inactive)
REMARK    1  A    between atoms: N_4  and  C_5
REMARK    2  A    between atoms: C_5  and  C_7
REMARK    3  A    between atoms: N_15  and  C_16
REMARK    4  A    between atoms: C_19  and  C_20
REMARK                            x       y       z     vdW  Elec       q    Type
REMARK                         _______ _______ _______ _____ _____    ______ ____
ROOT
ATOM      1  C   UNL     1     -16.603  -3.002   0.281  0.00  0.00    +0.000 C 
ATOM      2  O   UNL     1     -17.128  -3.366   1.289  0.00  0.00    +0.000 OA
ATOM      3  N   UNL     1     -15.222  -2.940   0.071  0.00  0.00    +0.000 N 
ATOM      4  C   UNL     1     -14.401  -2.531  -0.924  0.00  0.00    +0.000 C 
ATOM      5  C   UNL     1     -13.175  -3.628  -1.037  0.00  0.00    +0.000 C 
ATOM      6  C   UNL     1     -13.706  -4.649   0.130  0.00  0.00    +0.000 C 
ATOM      7  C   UNL     1     -14.283  -3.508   1.199  0.00  0.00    +0.000 C 
ATOM      8  C   UNL     1     -13.030  -2.465   1.009  0.00  0.00    +0.000 C 
ATOM      9  N   UNL     1     -12.247  -2.893   0.012  0.00  0.00    +0.000 N 
ENDROOT
BRANCH   9  10
ATOM     10  C   UNL     1     -10.877  -2.851  -0.284  0.00  0.00    +0.000 A 
ATOM     11  C   UNL     1     -10.358  -2.944  -1.562  0.00  0.00    +0.000 A 
ATOM     12  N   UNL     1      -9.030  -2.940  -1.762  0.00  0.00    +0.000 NA
ATOM     13  C   UNL     1      -8.168  -2.845  -0.734  0.00  0.00    +0.000 A 
ATOM     14  C   UNL     1      -8.648  -2.750   0.544  0.00  0.00    +0.000 A 
ATOM     15  N   UNL     1      -9.996  -2.755   0.742  0.00  0.00    +0.000 NA
BRANCH  13  16
ATOM     16  C   UNL     1      -6.732  -2.854  -0.936  0.00  0.00    +0.000 C 
ATOM     17  N   UNL     1      -5.594  -2.870  -1.077  0.00  0.00    +0.000 NA
ENDBRANCH  13  16
ENDBRANCH   9  10
BRANCH   1  18
ATOM     18  C   UNL     1     -17.454  -2.525  -0.999  0.00  0.00    +0.000 C 
ATOM     19  C   UNL     1     -17.678  -0.948  -0.427  0.00  0.00    +0.000 C 
BRANCH  18  23
ATOM     20  C   UNL     1     -21.213  -3.679  -0.710  0.00  0.00    +0.000 C 
ATOM     21  C   UNL     1     -19.915  -3.228  -1.317  0.00  0.00    +0.000 C 
ATOM     22  O   UNL     1     -19.807  -3.061  -2.573  0.00  0.00    +0.000 OA
ATOM     23  N   UNL     1     -18.854  -3.001  -0.490  0.00  0.00    +0.000 NA
ENDBRANCH  18  23
ENDBRANCH   1  18
TORSDOF 4
ENDMDL
MODEL 3
REMARK VINA RESULT:      -4.8      3.628      8.856
REMARK  Name = 
REMARK  4 active torsions:
REMARK  status: ('A' for Active; 'I' for Inactive)
REMARK    1  A    between atoms: N_4  and  C_5
REMARK    2  A    between atoms: C_5  and  C_7
REMARK    3  A    between atoms: N_15  and  C_16
REMARK    4  A    between atoms: C_19  and  C_20
REMARK                            x       y       z     vdW  Elec       q    Type
REMARK                         _______ _______ _______ _____ _____    ______ ____
ROOT
ATOM      1  C   UNL     1     -10.827  -3.530  -0.879  0.00  0.00    +0.000 C 
ATOM      2  O   UNL     1     -10.321  -4.573  -0.593  0.00  0.00    +0.000 OA
ATOM      3  N   UNL     1     -12.193  -3.247  -0.792  0.00  0.00    +0.000 N 
ATOM      4  C   UNL     1     -12.997  -2.202  -1.093  0.00  0.00    +0.000 C 
ATOM      5  C   UNL     1     -14.095  -2.054   0.129  0.00  0.00    +0.000 C 
ATOM      6  C   UNL     1     -13.525  -3.272   1.065  0.00  0.00    +0.000 C 
ATOM      7  C   UNL     1     -13.127  -4.340  -0.151  0.00  0.00    +0.000 C 
ATOM      8  C   UNL     1     -14.470  -4.060  -1.052  0.00  0.00    +0.000 C 
ATOM      9  N   UNL     1     -15.149  -3.035  -0.525  0.00  0.00    +0.000 N 
ENDROOT
BRANCH   9  10
ATOM     10  C   UNL     1     -16.499  -2.668  -0.416  0.00  0.00    +0.000 A 
ATOM     11  C   UNL     1     -16.939  -1.362  -0.309  0.00  0.00    +0.000 A 
ATOM     12  N   UNL     1     -18.247  -1.092  -0.165  0.00  0.00    +0.000 NA
ATOM     13  C   UNL     1     -19.163  -2.075  -0.121  0.00  0.00    +0.000 A 
ATOM     14  C   UNL     1     -18.762  -3.380  -0.226  0.00  0.00    +0.000 A 
ATOM     15  N   UNL     1     -17.434  -3.649  -0.372  0.00  0.00    +0.000 NA
BRANCH  13  16
ATOM     16  C   UNL     1     -20.577  -1.797   0.049  0.00  0.00    +0.000 C 
ATOM     17  N   UNL     1     -21.699  -1.593   0.171  0.00  0.00    +0.000 NA
ENDBRANCH  13  16
ENDBRANCH   9  10
BRANCH   1  18
ATOM     18  C   UNL     1      -9.962  -2.283  -1.418  0.00  0.00    +0.000 C 
ATOM     19  C   UNL     1      -9.644  -2.987  -2.925  0.00  0.00    +0.000 C 
BRANCH  18  23
ATOM     20  C   UNL     1      -6.336  -2.400   0.126  0.00  0.00    +0.000 C 
ATOM     21  C   UNL     1      -7.622  -1.852  -0.425  0.00  0.00    +0.000 C 
ATOM     22  O   UNL     1      -7.805  -0.597  -0.521  0.00  0.00    +0.000 OA
ATOM     23  N   UNL     1      -8.586  -2.730  -0.824  0.00  0.00    +0.000 NA
ENDBRANCH  18  23
ENDBRANCH   1  18
TORSDOF 4
ENDMDL
MODEL 4
REMARK VINA RESULT:      -4.8      2.618      5.323
REMARK  Name = 
REMARK  4 active torsions:
REMARK  status: ('A' for Active; 'I' for Inactive)
REMARK    1  A    between atoms: N_4  and  C_5
REMARK    2  A    between atoms: C_5  and  C_7
REMARK    3  A    between atoms: N_15  and  C_16
REMARK    4  A    between atoms: C_19  and  C_20
REMARK                            x       y       z     vdW  Elec       q    Type
REMARK                         _______ _______ _______ _____ _____    ______ ____
ROOT
ATOM      1  C   UNL     1     -14.579  -3.341  -0.923  0.00  0.00    +0.000 C 
ATOM      2  O   UNL     1     -15.242  -2.866  -1.795  0.00  0.00    +0.000 OA
ATOM      3  N   UNL     1     -13.207  -3.137  -0.753  0.00  0.00    +0.000 N 
ATOM      4  C   UNL     1     -12.248  -3.584   0.090  0.00  0.00    +0.000 C 
ATOM      5  C   UNL     1     -11.284  -2.300   0.468  0.00  0.00    +0.000 C 
ATOM      6  C   UNL     1     -12.105  -1.169  -0.386  0.00  0.00    +0.000 C 
ATOM      7  C   UNL     1     -12.497  -2.106  -1.707  0.00  0.00    +0.000 C 
ATOM      8  C   UNL     1     -11.036  -2.849  -1.811  0.00  0.00    +0.000 C 
ATOM      9  N   UNL     1     -10.296  -2.518  -0.748  0.00  0.00    +0.000 N 
ENDROOT
BRANCH   9  10
ATOM     10  C   UNL     1      -8.931  -2.318  -0.490  0.00  0.00    +0.000 A 
ATOM     11  C   UNL     1      -8.358  -1.078  -0.278  0.00  0.00    +0.000 A 
ATOM     12  N   UNL     1      -7.034  -0.963  -0.080  0.00  0.00    +0.000 NA
ATOM     13  C   UNL     1      -6.231  -2.042  -0.081  0.00  0.00    +0.000 A 
ATOM     14  C   UNL     1      -6.766  -3.284  -0.286  0.00  0.00    +0.000 A 
ATOM     15  N   UNL     1      -8.110  -3.396  -0.487  0.00  0.00    +0.000 NA
BRANCH  13  16
ATOM     16  C   UNL     1      -4.798  -1.929   0.117  0.00  0.00    +0.000 C 
ATOM     17  N   UNL     1      -3.663  -1.836   0.254  0.00  0.00    +0.000 NA
ENDBRANCH  13  16
ENDBRANCH   9  10
BRANCH   1  18
ATOM     18  C   UNL     1     -15.213  -4.305   0.201  0.00  0.00    +0.000 C 
ATOM     19  C   UNL     1     -15.094  -5.704  -0.745  0.00  0.00    +0.000 C 
BRANCH  18  23
ATOM     20  C   UNL     1     -18.973  -3.125   0.083  0.00  0.00    +0.000 C 
ATOM     21  C   UNL     1     -17.546  -3.261   0.536  0.00  0.00    +0.000 C 
ATOM     22  O   UNL     1     -17.126  -2.630   1.557  0.00  0.00    +0.000 OA
ATOM     23  N   UNL     1     -16.714  -4.077  -0.173  0.00  0.00    +0.000 NA
ENDBRANCH  18  23
ENDBRANCH   1  18
TORSDOF 4
ENDMDL
MODEL 5
REMARK VINA RESULT:      -4.7      3.769      8.921
REMARK  Name = 
REMARK  4 active torsions:
REMARK  status: ('A' for Active; 'I' for Inactive)
REMARK    1  A    between atoms: N_4  and  C_5
REMARK    2  A    between atoms: C_5  and  C_7
REMARK    3  A    between atoms: N_15  and  C_16
REMARK    4  A    between atoms: C_19  and  C_20
REMARK                            x       y       z     vdW  Elec       q    Type
REMARK                         _______ _______ _______ _____ _____    ______ ____
ROOT
ATOM      1  C   UNL     1     -10.233  -3.162   0.066  0.00  0.00    +0.000 C 
ATOM      2  O   UNL     1      -9.634  -2.634   0.954  0.00  0.00    +0.000 OA
ATOM      3  N   UNL     1     -11.622  -3.160  -0.080  0.00  0.00    +0.000 N 
ATOM      4  C   UNL     1     -12.517  -3.706  -0.935  0.00  0.00    +0.000 C 
ATOM      5  C   UNL     1     -13.670  -2.566  -1.240  0.00  0.00    +0.000 C 
ATOM      6  C   UNL     1     -13.014  -1.366  -0.338  0.00  0.00    +0.000 C 
ATOM      7  C   UNL     1     -12.464  -2.295   0.931  0.00  0.00    +0.000 C 
ATOM      8  C   UNL     1     -13.793  -3.255   1.012  0.00  0.00    +0.000 C 
ATOM      9  N   UNL     1     -14.593  -2.989  -0.027  0.00  0.00    +0.000 N 
ENDROOT
BRANCH   9  10
ATOM     10  C   UNL     1     -15.976  -2.986  -0.262  0.00  0.00    +0.000 A 
ATOM     11  C   UNL     1     -16.869  -3.834   0.367  0.00  0.00    +0.000 A 
ATOM     12  N   UNL     1     -18.176  -3.800   0.058  0.00  0.00    +0.000 NA
ATOM     13  C   UNL     1     -18.654  -2.948  -0.865  0.00  0.00    +0.000 A 
ATOM     14  C   UNL     1     -17.798  -2.093  -1.506  0.00  0.00    +0.000 A 
ATOM     15  N   UNL     1     -16.473  -2.131  -1.189  0.00  0.00    +0.000 NA
BRANCH  13  16
ATOM     16  C   UNL     1     -20.061  -2.912  -1.219  0.00  0.00    +0.000 C 
ATOM     17  N   UNL     1     -21.176  -2.870  -1.485  0.00  0.00    +0.000 NA
ENDBRANCH  13  16
ENDBRANCH   9  10
BRANCH   1  18
ATOM     18  C   UNL     1      -9.480  -3.963  -1.110  0.00  0.00    +0.000 C 
ATOM     19  C   UNL     1      -9.485  -5.441  -0.284  0.00  0.00    +0.000 C 
BRANCH  18  23
ATOM     20  C   UNL     1      -5.833  -2.495  -0.816  0.00  0.00    +0.000 C 
ATOM     21  C   UNL     1      -7.224  -2.733  -1.330  0.00  0.00    +0.000 C 
ATOM     22  O   UNL     1      -7.651  -2.120  -2.358  0.00  0.00    +0.000 OA
ATOM     23  N   UNL     1      -8.018  -3.626  -0.670  0.00  0.00    +0.000 NA
ENDBRANCH  18  23
ENDBRANCH   1  18
TORSDOF 4
ENDMDL
