MODEL 1
REMARK VINA RESULT:      -4.8      0.000      0.000
REMARK  Name = 
REMARK  6 active torsions:
REMARK  status: ('A' for Active; 'I' for Inactive)
REMARK    1  A    between atoms: O_2  and  C_3
REMARK    2  A    between atoms: C_4  and  N_5
REMARK    3  A    between atoms: N_8  and  C_9
REMARK    4  A    between atoms: C_9  and  C_10
REMARK    5  A    between atoms: C_10  and  C_12
REMARK    6  A    between atoms: C_19  and  C_20
REMARK                            x       y       z     vdW  Elec       q    Type
REMARK                         _______ _______ _______ _____ _____    ______ ____
ROOT
ATOM      1  C   UNL     1     -13.290  -9.160  -0.143  0.00  0.00    +0.000 A 
ATOM      2  C   UNL     1     -14.589  -8.710  -0.232  0.00  0.00    +0.000 A 
ATOM      3  C   UNL     1     -15.472  -9.456  -0.984  0.00  0.00    +0.000 A 
ATOM      4  C   UNL     1     -15.077 -10.616  -1.628  0.00  0.00    +0.000 A 
ATOM      5  C   UNL     1     -13.766 -11.018  -1.503  0.00  0.00    +0.000 A 
ATOM      6  C   UNL     1     -12.833 -10.293  -0.751  0.00  0.00    +0.000 A 
ENDROOT
BRANCH   2   7
ATOM      7  N   UNL     1     -14.951  -7.512   0.447  0.00  0.00    +0.000 NA
ATOM      8  C   UNL     1     -14.950  -6.245  -0.197  0.00  0.00    +0.000 C 
ATOM      9  O   UNL     1     -14.614  -6.176  -1.420  0.00  0.00    +0.000 OA
ATOM     10  N   UNL     1     -15.295  -5.047   0.427  0.00  0.00    +0.000 NA
BRANCH  10  11
ATOM     11  C   UNL     1     -15.310  -3.778  -0.160  0.00  0.00    +0.000 C 
BRANCH  11  12
ATOM     12  C   UNL     1     -14.163  -2.835   0.488  0.00  0.00    +0.000 C 
ATOM     13  C   UNL     1     -15.023  -1.439   0.346  0.00  0.00    +0.000 C 
BRANCH  12  14
ATOM     14  C   UNL     1     -13.257  -2.673  -0.849  0.00  0.00    +0.000 C 
ATOM     15  C   UNL     1     -13.975  -2.813  -2.083  0.00  0.00    +0.000 C 
ATOM     16  C   UNL     1     -12.741  -1.244  -0.662  0.00  0.00    +0.000 C 
ATOM     17  C   UNL     1     -12.081  -3.611  -0.653  0.00  0.00    +0.000 C 
ENDBRANCH  12  14
ENDBRANCH  11  12
ENDBRANCH  10  11
ENDBRANCH   2   7
BRANCH   6  18
ATOM     18  C   UNL     1     -11.455 -10.732  -0.632  0.00  0.00    +0.000 C 
ATOM     19  O   UNL     1     -10.660 -10.564  -1.577  0.00  0.00    +0.000 OA
ATOM     20  O   UNL     1     -11.059 -11.336   0.546  0.00  0.00    +0.000 OA
ENDBRANCH   6  18
BRANCH   1  22
ATOM     21  C   UNL     1     -11.577  -7.488  -0.110  0.00  0.00    +0.000 C 
ATOM     22  O   UNL     1     -12.369  -8.425   0.612  0.00  0.00    +0.000 OA
ENDBRANCH   1  22
TORSDOF 6
ENDMDL
MODEL 2
REMARK VINA RESULT:      -4.7      4.232      6.480
REMARK  Name = 
REMARK  6 active torsions:
REMARK  status: ('A' for Active; 'I' for Inactive)
REMARK    1  A    between atoms: O_2  and  C_3
REMARK    2  A    between atoms: C_4  and  N_5
REMARK    3  A    between atoms: N_8  and  C_9
REMARK    4  A    between atoms: C_9  and  C_10
REMARK    5  A    between atoms: C_10  and  C_12
REMARK    6  A    between atoms: C_19  and  C_20
REMARK                            x       y       z     vdW  Elec       q    Type
REMARK                         _______ _______ _______ _____ _____    ______ ____
ROOT
ATOM      1  C   UNL     1     -12.763  -3.176  -1.101  0.00  0.00    +0.000 A 
ATOM      2  C   UNL     1     -13.979  -3.825  -1.131  0.00  0.00    +0.000 A 
ATOM      3  C   UNL     1     -14.006  -5.145  -0.736  0.00  0.00    +0.000 A 
ATOM      4  C   UNL     1     -12.860  -5.803  -0.322  0.00  0.00    +0.000 A 
ATOM      5  C   UNL     1     -11.674  -5.104  -0.312  0.00  0.00    +0.000 A 
ATOM      6  C   UNL     1     -11.597  -3.763  -0.705  0.00  0.00    +0.000 A 
ENDROOT
BRANCH   2   7
ATOM      7  N   UNL     1     -15.131  -3.109  -1.563  0.00  0.00    +0.000 NA
ATOM      8  C   UNL     1     -16.214  -2.816  -0.690  0.00  0.00    +0.000 C 
ATOM      9  O   UNL     1     -16.153  -3.206   0.518  0.00  0.00    +0.000 OA
ATOM     10  N   UNL     1     -17.361  -2.120  -1.067  0.00  0.00    +0.000 NA
BRANCH  10  11
ATOM     11  C   UNL     1     -18.451  -1.807  -0.249  0.00  0.00    +0.000 C 
BRANCH  11  12
ATOM     12  C   UNL     1     -19.485  -3.053  -0.173  0.00  0.00    +0.000 C 
ATOM     13  C   UNL     1     -19.732  -3.138  -1.798  0.00  0.00    +0.000 C 
BRANCH  12  14
ATOM     14  C   UNL     1     -20.808  -2.192   0.206  0.00  0.00    +0.000 C 
ATOM     15  C   UNL     1     -20.565  -0.805   0.483  0.00  0.00    +0.000 C 
ATOM     16  C   UNL     1     -21.630  -2.370  -1.073  0.00  0.00    +0.000 C 
ATOM     17  C   UNL     1     -21.498  -2.979   1.305  0.00  0.00    +0.000 C 
ENDBRANCH  12  14
ENDBRANCH  11  12
ENDBRANCH  10  11
ENDBRANCH   2   7
BRANCH   6  18
ATOM     18  C   UNL     1     -10.336  -3.043  -0.688  0.00  0.00    +0.000 C 
ATOM     19  O   UNL     1      -9.916  -2.541   0.373  0.00  0.00    +0.000 OA
ATOM     20  O   UNL     1      -9.629  -2.932  -1.869  0.00  0.00    +0.000 OA
ENDBRANCH   6  18
BRANCH   1  22
ATOM     21  C   UNL     1     -12.900  -0.871  -0.469  0.00  0.00    +0.000 C 
ATOM     22  O   UNL     1     -12.701  -1.835  -1.497  0.00  0.00    +0.000 OA
ENDBRANCH   1  22
TORSDOF 6
ENDMDL
MODEL 3
REMARK VINA RESULT:      -4.7      5.078      6.867
REMARK  Name = 
REMARK  6 active torsions:
REMARK  status: ('A' for Active; 'I' for Inactive)
REMARK    1  A    between atoms: O_2  and  C_3
REMARK    2  A    between atoms: C_4  and  N_5
REMARK    3  A    between atoms: N_8  and  C_9
REMARK    4  A    between atoms: C_9  and  C_10
REMARK    5  A    between atoms: C_10  and  C_12
REMARK    6  A    between atoms: C_19  and  C_20
REMARK                            x       y       z     vdW  Elec       q    Type
REMARK                         _______ _______ _______ _____ _____    ______ ____
ROOT
ATOM      1  C   UNL     1      -7.969  -3.200  -1.032  0.00  0.00    +0.000 A 
ATOM      2  C   UNL     1      -9.181  -3.856  -1.067  0.00  0.00    +0.000 A 
ATOM      3  C   UNL     1      -9.203  -5.176  -0.671  0.00  0.00    +0.000 A 
ATOM      4  C   UNL     1      -8.056  -5.827  -0.250  0.00  0.00    +0.000 A 
ATOM      5  C   UNL     1      -6.873  -5.122  -0.235  0.00  0.00    +0.000 A 
ATOM      6  C   UNL     1      -6.802  -3.780  -0.629  0.00  0.00    +0.000 A 
ENDROOT
BRANCH   2   7
ATOM      7  N   UNL     1     -10.335  -3.147  -1.506  0.00  0.00    +0.000 NA
ATOM      8  C   UNL     1     -11.375  -2.767  -0.616  0.00  0.00    +0.000 C 
ATOM      9  O   UNL     1     -11.274  -3.068   0.614  0.00  0.00    +0.000 OA
ATOM     10  N   UNL     1     -12.523  -2.074  -0.999  0.00  0.00    +0.000 NA
BRANCH  10  11
ATOM     11  C   UNL     1     -13.572  -1.677  -0.165  0.00  0.00    +0.000 C 
BRANCH  11  12
ATOM     12  C   UNL     1     -14.657  -2.870  -0.003  0.00  0.00    +0.000 C 
ATOM     13  C   UNL     1     -14.895  -3.071  -1.619  0.00  0.00    +0.000 C 
BRANCH  12  14
ATOM     14  C   UNL     1     -15.946  -1.930   0.295  0.00  0.00    +0.000 C 
ATOM     15  C   UNL     1     -15.655  -0.530   0.419  0.00  0.00    +0.000 C 
ATOM     16  C   UNL     1     -16.791  -2.216  -0.949  0.00  0.00    +0.000 C 
ATOM     17  C   UNL     1     -16.646  -2.571   1.479  0.00  0.00    +0.000 C 
ENDBRANCH  12  14
ENDBRANCH  11  12
ENDBRANCH  10  11
ENDBRANCH   2   7
BRANCH   6  18
ATOM     18  C   UNL     1      -5.545  -3.053  -0.607  0.00  0.00    +0.000 C 
ATOM     19  O   UNL     1      -5.140  -2.536   0.452  0.00  0.00    +0.000 OA
ATOM     20  O   UNL     1      -4.825  -2.952  -1.782  0.00  0.00    +0.000 OA
ENDBRANCH   6  18
BRANCH   1  22
ATOM     21  C   UNL     1      -8.106  -0.895  -0.402  0.00  0.00    +0.000 C 
ATOM     22  O   UNL     1      -7.913  -1.860  -1.430  0.00  0.00    +0.000 OA
ENDBRANCH   1  22
TORSDOF 6
ENDMDL
MODEL 4
REMARK VINA RESULT:      -4.7      3.306      6.362
REMARK  Name = 
REMARK  6 active torsions:
REMARK  status: ('A' for Active; 'I' for Inactive)
REMARK    1  A    between atoms: O_2  and  C_3
REMARK    2  A    between atoms: C_4  and  N_5
REMARK    3  A    between atoms: N_8  and  C_9
REMARK    4  A    between atoms: C_9  and  C_10
REMARK    5  A    between atoms: C_10  and  C_12
REMARK    6  A    between atoms: C_19  and  C_20
REMARK                            x       y       z     vdW  Elec       q    Type
REMARK                         _______ _______ _______ _____ _____    ______ ____
ROOT
ATOM      1  C   UNL     1     -11.655  -8.606  -0.303  0.00  0.00    +0.000 A 
ATOM      2  C   UNL     1     -12.175  -9.858  -0.550  0.00  0.00    +0.000 A 
ATOM      3  C   UNL     1     -11.394 -10.745  -1.260  0.00  0.00    +0.000 A 
ATOM      4  C   UNL     1     -10.132 -10.399  -1.711  0.00  0.00    +0.000 A 
ATOM      5  C   UNL     1      -9.663  -9.134  -1.436  0.00  0.00    +0.000 A 
ATOM      6  C   UNL     1     -10.420  -8.200  -0.719  0.00  0.00    +0.000 A 
ENDROOT
BRANCH   2   7
ATOM      7  N   UNL     1     -13.478 -10.169  -0.066  0.00  0.00    +0.000 NA
ATOM      8  C   UNL     1     -14.604 -10.266  -0.927  0.00  0.00    +0.000 C 
ATOM      9  O   UNL     1     -14.446 -10.067  -2.172  0.00  0.00    +0.000 OA
ATOM     10  N   UNL     1     -15.896 -10.567  -0.500  0.00  0.00    +0.000 NA
BRANCH  10  11
ATOM     11  C   UNL     1     -17.035 -10.674  -1.304  0.00  0.00    +0.000 C 
BRANCH  11  12
ATOM     12  C   UNL     1     -18.224  -9.730  -0.740  0.00  0.00    +0.000 C 
ATOM     13  C   UNL     1     -18.161 -10.315   0.797  0.00  0.00    +0.000 C 
BRANCH  12  14
ATOM     14  C   UNL     1     -19.465 -10.632  -1.270  0.00  0.00    +0.000 C 
ATOM     15  C   UNL     1     -20.761 -10.043  -1.083  0.00  0.00    +0.000 C 
ATOM     16  C   UNL     1     -19.111 -10.745  -2.755  0.00  0.00    +0.000 C 
ATOM     17  C   UNL     1     -19.261 -12.001  -0.647  0.00  0.00    +0.000 C 
ENDBRANCH  12  14
ENDBRANCH  11  12
ENDBRANCH  10  11
ENDBRANCH   2   7
BRANCH   6  18
ATOM     18  C   UNL     1      -9.909  -6.870  -0.438  0.00  0.00    +0.000 C 
ATOM     19  O   UNL     1     -10.062  -5.953  -1.268  0.00  0.00    +0.000 OA
ATOM     20  O   UNL     1      -9.256  -6.658   0.760  0.00  0.00    +0.000 OA
ENDBRANCH   6  18
BRANCH   1  22
ATOM     21  C   UNL     1     -13.292  -6.860  -0.359  0.00  0.00    +0.000 C 
ATOM     22  O   UNL     1     -12.423  -7.682   0.413  0.00  0.00    +0.000 OA
ENDBRANCH   1  22
TORSDOF 6
ENDMDL
MODEL 5
REMARK VINA RESULT:      -4.6      4.348      6.931
REMARK  Name = 
REMARK  6 active torsions:
REMARK  status: ('A' for Active; 'I' for Inactive)
REMARK    1  A    between atoms: O_2  and  C_3
REMARK    2  A    between atoms: C_4  and  N_5
REMARK    3  A    between atoms: N_8  and  C_9
REMARK    4  A    between atoms: C_9  and  C_10
REMARK    5  A    between atoms: C_10  and  C_12
REMARK    6  A    between atoms: C_19  and  C_20
REMARK                            x       y       z     vdW  Elec       q    Type
REMARK                         _______ _______ _______ _____ _____    ______ ____
ROOT
ATOM      1  C   UNL     1     -17.684  -3.165  -0.817  0.00  0.00    +0.000 A 
ATOM      2  C   UNL     1     -16.684  -3.776  -0.093  0.00  0.00    +0.000 A 
ATOM      3  C   UNL     1     -16.905  -5.067   0.338  0.00  0.00    +0.000 A 
ATOM      4  C   UNL     1     -18.086  -5.732   0.057  0.00  0.00    +0.000 A 
ATOM      5  C   UNL     1     -19.051  -5.073  -0.671  0.00  0.00    +0.000 A 
ATOM      6  C   UNL     1     -18.871  -3.762  -1.129  0.00  0.00    +0.000 A 
ENDROOT
BRANCH   2   7
ATOM      7  N   UNL     1     -15.485  -3.053   0.172  0.00  0.00    +0.000 NA
ATOM      8  C   UNL     1     -14.270  -3.324  -0.513  0.00  0.00    +0.000 C 
ATOM      9  O   UNL     1     -14.249  -4.241  -1.392  0.00  0.00    +0.000 OA
ATOM     10  N   UNL     1     -13.073  -2.644  -0.287  0.00  0.00    +0.000 NA
BRANCH  10  11
ATOM     11  C   UNL     1     -11.854  -2.871  -0.932  0.00  0.00    +0.000 C 
BRANCH  11  12
ATOM     12  C   UNL     1     -10.701  -3.251   0.141  0.00  0.00    +0.000 C 
ATOM     13  C   UNL     1     -10.019  -1.754   0.161  0.00  0.00    +0.000 C 
BRANCH  12  14
ATOM     14  C   UNL     1      -9.675  -3.948  -0.905  0.00  0.00    +0.000 C 
ATOM     15  C   UNL     1      -9.923  -5.339  -1.156  0.00  0.00    +0.000 C 
ATOM     16  C   UNL     1      -9.934  -3.100  -2.153  0.00  0.00    +0.000 C 
ATOM     17  C   UNL     1      -8.287  -3.601  -0.399  0.00  0.00    +0.000 C 
ENDBRANCH  12  14
ENDBRANCH  11  12
ENDBRANCH  10  11
ENDBRANCH   2   7
BRANCH   6  18
ATOM     18  C   UNL     1     -19.900  -3.083  -1.895  0.00  0.00    +0.000 C 
ATOM     19  O   UNL     1     -19.818  -3.022  -3.138  0.00  0.00    +0.000 OA
ATOM     20  O   UNL     1     -20.956  -2.512  -1.212  0.00  0.00    +0.000 OA
ENDBRANCH   6  18
BRANCH   1  22
ATOM     21  C   UNL     1     -17.755  -0.824  -0.323  0.00  0.00    +0.000 C 
ATOM     22  O   UNL     1     -17.490  -1.855  -1.268  0.00  0.00    +0.000 OA
ENDBRANCH   1  22
TORSDOF 6
ENDMDL
