MODEL 1
REMARK VINA RESULT:      -4.5      0.000      0.000
REMARK  Name = 
REMARK  7 active torsions:
REMARK  status: ('A' for Active; 'I' for Inactive)
REMARK    1  A    between atoms: C_2  and  C_3
REMARK    2  A    between atoms: C_3  and  C_4
REMARK    3  A    between atoms: C_4  and  C_5
REMARK    4  A    between atoms: N_13  and  C_14
REMARK    5  A    between atoms: C_14  and  C_15
REMARK    6  A    between atoms: C_15  and  C_16
REMARK    7  A    between atoms: N_21  and  C_22
REMARK                            x       y       z     vdW  Elec       q    Type
REMARK                         _______ _______ _______ _____ _____    ______ ____
ROOT
ATOM      1  C   UNL     1     -17.723 -10.675  -0.627  0.00  0.00    +0.000 C 
ATOM      2  C   UNL     1     -18.846 -11.673  -0.602  0.00  0.00    +0.000 C 
ATOM      3  C   UNL     1     -19.937 -10.991  -1.372  0.00  0.00    +0.000 C 
ATOM      4  C   UNL     1     -19.479  -9.581  -1.641  0.00  0.00    +0.000 C 
ATOM      5  N   UNL     1     -18.437  -9.410  -0.625  0.00  0.00    +0.000 N 
ATOM      6  C   UNL     1     -18.210  -8.257   0.160  0.00  0.00    +0.000 C 
ATOM      7  O   UNL     1     -17.283  -8.244   0.995  0.00  0.00    +0.000 OA
ATOM      8  N   UNL     1     -19.037  -7.125  -0.006  0.00  0.00    +0.000 NA
ENDROOT
BRANCH   1   9
ATOM      9  C   UNL     1     -16.806 -10.816   0.567  0.00  0.00    +0.000 C 
ATOM     10  O   UNL     1     -16.882 -12.052   1.156  0.00  0.00    +0.000 OA
ENDBRANCH   1   9
BRANCH   1  11
ATOM     11  C   UNL     1     -16.968 -10.775  -1.917  0.00  0.00    +0.000 C 
BRANCH  11  13
ATOM     12  C   UNL     1     -14.877 -10.478  -3.142  0.00  0.00    +0.000 C 
ATOM     13  C   UNL     1     -15.495 -10.494  -1.757  0.00  0.00    +0.000 C 
ENDBRANCH  11  13
ENDBRANCH   1  11
BRANCH   8  14
ATOM     14  C   UNL     1     -18.871  -5.903   0.759  0.00  0.00    +0.000 C 
BRANCH  14  15
ATOM     15  C   UNL     1     -18.468  -4.794  -0.221  0.00  0.00    +0.000 C 
BRANCH  15  16
ATOM     16  C   UNL     1     -17.072  -4.389   0.058  0.00  0.00    +0.000 A 
ATOM     17  N   UNL     1     -16.176  -5.039   0.792  0.00  0.00    +0.000 NA
ATOM     18  N   UNL     1     -15.042  -4.340   0.793  0.00  0.00    +0.000 NA
ATOM     19  C   UNL     1     -15.259  -3.235   0.036  0.00  0.00    +0.000 A 
ATOM     20  S   UNL     1     -14.039  -1.981  -0.270  0.00  0.00    +0.000 S 
ATOM     21  N   UNL     1     -16.506  -3.273  -0.411  0.00  0.00    +0.000 N 
BRANCH  21  22
ATOM     22  C   UNL     1     -17.151  -2.281  -1.261  0.00  0.00    +0.000 C 
ATOM     23  C   UNL     1     -17.673  -1.170  -0.345  0.00  0.00    +0.000 C 
ENDBRANCH  21  22
ENDBRANCH  15  16
ENDBRANCH  14  15
ENDBRANCH   8  14
TORSDOF 7
ENDMDL
MODEL 2
REMARK VINA RESULT:      -4.5      5.022      7.247
REMARK  Name = 
REMARK  7 active torsions:
REMARK  status: ('A' for Active; 'I' for Inactive)
REMARK    1  A    between atoms: C_2  and  C_3
REMARK    2  A    between atoms: C_3  and  C_4
REMARK    3  A    between atoms: C_4  and  C_5
REMARK    4  A    between atoms: N_13  and  C_14
REMARK    5  A    between atoms: C_14  and  C_15
REMARK    6  A    between atoms: C_15  and  C_16
REMARK    7  A    between atoms: N_21  and  C_22
REMARK                            x       y       z     vdW  Elec       q    Type
REMARK                         _______ _______ _______ _____ _____    ______ ____
ROOT
ATOM      1  C   UNL     1     -18.656  -3.339   0.014  0.00  0.00    +0.000 C 
ATOM      2  C   UNL     1     -19.139  -2.145   0.788  0.00  0.00    +0.000 C 
ATOM      3  C   UNL     1     -18.593  -0.982   0.015  0.00  0.00    +0.000 C 
ATOM      4  C   UNL     1     -17.676  -1.540  -1.042  0.00  0.00    +0.000 C 
ATOM      5  N   UNL     1     -17.382  -2.871  -0.505  0.00  0.00    +0.000 N 
ATOM      6  C   UNL     1     -16.126  -3.520  -0.511  0.00  0.00    +0.000 C 
ATOM      7  O   UNL     1     -16.012  -4.661  -0.018  0.00  0.00    +0.000 OA
ATOM      8  N   UNL     1     -15.006  -2.872  -1.075  0.00  0.00    +0.000 NA
ENDROOT
BRANCH   1   9
ATOM      9  C   UNL     1     -18.502  -4.563   0.887  0.00  0.00    +0.000 C 
ATOM     10  O   UNL     1     -18.377  -4.258   2.218  0.00  0.00    +0.000 OA
ENDBRANCH   1   9
BRANCH   1  11
ATOM     11  C   UNL     1     -19.558  -3.602  -1.153  0.00  0.00    +0.000 C 
BRANCH  11  13
ATOM     12  C   UNL     1     -21.732  -2.576  -1.585  0.00  0.00    +0.000 C 
ATOM     13  C   UNL     1     -21.016  -3.635  -0.769  0.00  0.00    +0.000 C 
ENDBRANCH  11  13
ENDBRANCH   1  11
BRANCH   8  14
ATOM     14  C   UNL     1     -13.685  -3.469  -1.121  0.00  0.00    +0.000 C 
BRANCH  14  15
ATOM     15  C   UNL     1     -12.762  -2.495  -1.865  0.00  0.00    +0.000 C 
BRANCH  15  16
ATOM     16  C   UNL     1     -11.701  -2.035  -0.940  0.00  0.00    +0.000 A 
ATOM     17  N   UNL     1     -11.806  -1.119   0.016  0.00  0.00    +0.000 NA
ATOM     18  N   UNL     1     -10.625  -1.000   0.619  0.00  0.00    +0.000 NA
ATOM     19  C   UNL     1      -9.781  -1.870   0.010  0.00  0.00    +0.000 A 
ATOM     20  S   UNL     1      -8.076  -2.084   0.459  0.00  0.00    +0.000 S 
ATOM     21  N   UNL     1     -10.449  -2.502  -0.945  0.00  0.00    +0.000 N 
BRANCH  21  22
ATOM     22  C   UNL     1      -9.920  -3.521  -1.841  0.00  0.00    +0.000 C 
ATOM     23  C   UNL     1     -10.017  -4.862  -1.110  0.00  0.00    +0.000 C 
ENDBRANCH  21  22
ENDBRANCH  15  16
ENDBRANCH  14  15
ENDBRANCH   8  14
TORSDOF 7
ENDMDL
MODEL 3
REMARK VINA RESULT:      -4.5      5.180      6.824
REMARK  Name = 
REMARK  7 active torsions:
REMARK  status: ('A' for Active; 'I' for Inactive)
REMARK    1  A    between atoms: C_2  and  C_3
REMARK    2  A    between atoms: C_3  and  C_4
REMARK    3  A    between atoms: C_4  and  C_5
REMARK    4  A    between atoms: N_13  and  C_14
REMARK    5  A    between atoms: C_14  and  C_15
REMARK    6  A    between atoms: C_15  and  C_16
REMARK    7  A    between atoms: N_21  and  C_22
REMARK                            x       y       z     vdW  Elec       q    Type
REMARK                         _______ _______ _______ _____ _____    ______ ____
ROOT
ATOM      1  C   UNL     1     -16.067 -10.508  -0.027  0.00  0.00    +0.000 C 
ATOM      2  C   UNL     1     -16.574  -9.320   0.741  0.00  0.00    +0.000 C 
ATOM      3  C   UNL     1     -15.988  -8.151   0.006  0.00  0.00    +0.000 C 
ATOM      4  C   UNL     1     -15.032  -8.703  -1.019  0.00  0.00    +0.000 C 
ATOM      5  N   UNL     1     -14.769 -10.043  -0.487  0.00  0.00    +0.000 N 
ATOM      6  C   UNL     1     -13.519 -10.702  -0.450  0.00  0.00    +0.000 C 
ATOM      7  O   UNL     1     -13.433 -11.848   0.034  0.00  0.00    +0.000 OA
ATOM      8  N   UNL     1     -12.373 -10.054  -0.960  0.00  0.00    +0.000 NA
ENDROOT
BRANCH   1   9
ATOM      9  C   UNL     1     -15.958 -11.744   0.837  0.00  0.00    +0.000 C 
ATOM     10  O   UNL     1     -16.085 -11.473   2.175  0.00  0.00    +0.000 OA
ENDBRANCH   1   9
BRANCH   1  11
ATOM     11  C   UNL     1     -16.922 -10.750  -1.233  0.00  0.00    +0.000 C 
BRANCH  11  13
ATOM     12  C   UNL     1     -19.149 -11.072  -2.181  0.00  0.00    +0.000 C 
ATOM     13  C   UNL     1     -18.366 -11.009  -0.883  0.00  0.00    +0.000 C 
ENDBRANCH  11  13
ENDBRANCH   1  11
BRANCH   8  14
ATOM     14  C   UNL     1     -11.054 -10.660  -0.958  0.00  0.00    +0.000 C 
BRANCH  14  15
ATOM     15  C   UNL     1     -10.153  -9.809  -1.862  0.00  0.00    +0.000 C 
BRANCH  15  16
ATOM     16  C   UNL     1      -8.999  -9.325  -1.070  0.00  0.00    +0.000 A 
ATOM     17  N   UNL     1      -7.802  -9.889  -0.961  0.00  0.00    +0.000 NA
ATOM     18  N   UNL     1      -7.052  -9.139  -0.156  0.00  0.00    +0.000 NA
ATOM     19  C   UNL     1      -7.818  -8.089   0.233  0.00  0.00    +0.000 A 
ATOM     20  S   UNL     1      -7.263  -6.798   1.318  0.00  0.00    +0.000 S 
ATOM     21  N   UNL     1      -9.011  -8.210  -0.333  0.00  0.00    +0.000 N 
BRANCH  21  22
ATOM     22  C   UNL     1     -10.136  -7.297  -0.182  0.00  0.00    +0.000 C 
ATOM     23  C   UNL     1      -9.974  -6.199  -1.236  0.00  0.00    +0.000 C 
ENDBRANCH  21  22
ENDBRANCH  15  16
ENDBRANCH  14  15
ENDBRANCH   8  14
TORSDOF 7
ENDMDL
MODEL 4
REMARK VINA RESULT:      -4.5      3.654      4.530
REMARK  Name = 
REMARK  7 active torsions:
REMARK  status: ('A' for Active; 'I' for Inactive)
REMARK    1  A    between atoms: C_2  and  C_3
REMARK    2  A    between atoms: C_3  and  C_4
REMARK    3  A    between atoms: C_4  and  C_5
REMARK    4  A    between atoms: N_13  and  C_14
REMARK    5  A    between atoms: C_14  and  C_15
REMARK    6  A    between atoms: C_15  and  C_16
REMARK    7  A    between atoms: N_21  and  C_22
REMARK                            x       y       z     vdW  Elec       q    Type
REMARK                         _______ _______ _______ _____ _____    ______ ____
ROOT
ATOM      1  C   UNL     1     -13.231 -10.520  -0.404  0.00  0.00    +0.000 C 
ATOM      2  C   UNL     1     -14.350 -11.517  -0.514  0.00  0.00    +0.000 C 
ATOM      3  C   UNL     1     -15.247 -10.922  -1.558  0.00  0.00    +0.000 C 
ATOM      4  C   UNL     1     -14.722  -9.544  -1.865  0.00  0.00    +0.000 C 
ATOM      5  N   UNL     1     -13.911  -9.266  -0.677  0.00  0.00    +0.000 N 
ATOM      6  C   UNL     1     -13.834  -8.038   0.019  0.00  0.00    +0.000 C 
ATOM      7  O   UNL     1     -13.100  -7.935   1.022  0.00  0.00    +0.000 OA
ATOM      8  N   UNL     1     -14.592  -6.933  -0.427  0.00  0.00    +0.000 NA
ENDROOT
BRANCH   1   9
ATOM      9  C   UNL     1     -12.584 -10.534   0.962  0.00  0.00    +0.000 C 
ATOM     10  O   UNL     1     -13.334 -11.194   1.902  0.00  0.00    +0.000 OA
ENDBRANCH   1   9
BRANCH   1  11
ATOM     11  C   UNL     1     -12.226 -10.745  -1.493  0.00  0.00    +0.000 C 
BRANCH  11  13
ATOM     12  C   UNL     1      -9.980 -10.369  -2.373  0.00  0.00    +0.000 C 
ATOM     13  C   UNL     1     -10.859 -10.213  -1.147  0.00  0.00    +0.000 C 
ENDBRANCH  11  13
ENDBRANCH   1  11
BRANCH   8  14
ATOM     14  C   UNL     1     -14.569  -5.640   0.230  0.00  0.00    +0.000 C 
BRANCH  14  15
ATOM     15  C   UNL     1     -13.972  -4.629  -0.757  0.00  0.00    +0.000 C 
BRANCH  15  16
ATOM     16  C   UNL     1     -12.581  -4.324  -0.349  0.00  0.00    +0.000 A 
ATOM     17  N   UNL     1     -11.797  -5.044   0.444  0.00  0.00    +0.000 NA
ATOM     18  N   UNL     1     -10.624  -4.423   0.559  0.00  0.00    +0.000 NA
ATOM     19  C   UNL     1     -10.702  -3.293  -0.189  0.00  0.00    +0.000 A 
ATOM     20  S   UNL     1      -9.381  -2.119  -0.360  0.00  0.00    +0.000 S 
ATOM     21  N   UNL     1     -11.905  -3.240  -0.743  0.00  0.00    +0.000 N 
BRANCH  21  22
ATOM     22  C   UNL     1     -12.407  -2.193  -1.622  0.00  0.00    +0.000 C 
ATOM     23  C   UNL     1     -12.861  -1.032  -0.733  0.00  0.00    +0.000 C 
ENDBRANCH  21  22
ENDBRANCH  15  16
ENDBRANCH  14  15
ENDBRANCH   8  14
TORSDOF 7
ENDMDL
MODEL 5
REMARK VINA RESULT:      -4.4      6.271      9.347
REMARK  Name = 
REMARK  7 active torsions:
REMARK  status: ('A' for Active; 'I' for Inactive)
REMARK    1  A    between atoms: C_2  and  C_3
REMARK    2  A    between atoms: C_3  and  C_4
REMARK    3  A    between atoms: C_4  and  C_5
REMARK    4  A    between atoms: N_13  and  C_14
REMARK    5  A    between atoms: C_14  and  C_15
REMARK    6  A    between atoms: C_15  and  C_16
REMARK    7  A    between atoms: N_21  and  C_22
REMARK                            x       y       z     vdW  Elec       q    Type
REMARK                         _______ _______ _______ _____ _____    ______ ____
ROOT
ATOM      1  C   UNL     1     -13.862  -3.170  -0.092  0.00  0.00    +0.000 C 
ATOM      2  C   UNL     1     -13.758  -1.723   0.301  0.00  0.00    +0.000 C 
ATOM      3  C   UNL     1     -12.840  -1.144  -0.734  0.00  0.00    +0.000 C 
ATOM      4  C   UNL     1     -12.310  -2.292  -1.552  0.00  0.00    +0.000 C 
ATOM      5  N   UNL     1     -12.549  -3.428  -0.657  0.00  0.00    +0.000 N 
ATOM      6  C   UNL     1     -11.674  -4.513  -0.424  0.00  0.00    +0.000 C 
ATOM      7  O   UNL     1     -12.001  -5.419   0.367  0.00  0.00    +0.000 OA
ATOM      8  N   UNL     1     -10.430  -4.563  -1.091  0.00  0.00    +0.000 NA
ENDROOT
BRANCH   1   9
ATOM      9  C   UNL     1     -14.162  -4.064   1.090  0.00  0.00    +0.000 C 
ATOM     10  O   UNL     1     -14.065  -3.410   2.292  0.00  0.00    +0.000 OA
ENDBRANCH   1   9
BRANCH   1  11
ATOM     11  C   UNL     1     -14.874  -3.340  -1.184  0.00  0.00    +0.000 C 
BRANCH  11  13
ATOM     12  C   UNL     1     -16.995  -2.151  -1.409  0.00  0.00    +0.000 C 
ATOM     13  C   UNL     1     -16.294  -3.281  -0.680  0.00  0.00    +0.000 C 
ENDBRANCH  11  13
ENDBRANCH   1  11
BRANCH   8  14
ATOM     14  C   UNL     1      -9.475  -5.640  -0.907  0.00  0.00    +0.000 C 
BRANCH  14  15
ATOM     15  C   UNL     1      -8.535  -5.235   0.236  0.00  0.00    +0.000 C 
BRANCH  15  16
ATOM     16  C   UNL     1      -7.169  -5.054  -0.306  0.00  0.00    +0.000 A 
ATOM     17  N   UNL     1      -6.315  -6.003  -0.673  0.00  0.00    +0.000 NA
ATOM     18  N   UNL     1      -5.197  -5.422  -1.105  0.00  0.00    +0.000 NA
ATOM     19  C   UNL     1      -5.381  -4.082  -0.998  0.00  0.00    +0.000 A 
ATOM     20  S   UNL     1      -4.167  -2.869  -1.453  0.00  0.00    +0.000 S 
ATOM     21  N   UNL     1      -6.594  -3.865  -0.507  0.00  0.00    +0.000 N 
BRANCH  21  22
ATOM     22  C   UNL     1      -7.196  -2.567  -0.233  0.00  0.00    +0.000 C 
ATOM     23  C   UNL     1      -7.885  -2.106  -1.520  0.00  0.00    +0.000 C 
ENDBRANCH  21  22
ENDBRANCH  15  16
ENDBRANCH  14  15
ENDBRANCH   8  14
TORSDOF 7
ENDMDL
