MODEL 1
REMARK VINA RESULT:      -5.6      0.000      0.000
REMARK  Name = 
REMARK  3 active torsions:
REMARK  status: ('A' for Active; 'I' for Inactive)
REMARK    1  A    between atoms: C_5  and  N_6
REMARK    2  A    between atoms: N_6  and  C_7
REMARK    3  A    between atoms: C_10  and  C_11
REMARK                            x       y       z     vdW  Elec       q    Type
REMARK                         _______ _______ _______ _____ _____    ______ ____
ROOT
ATOM      1  C   UNL     1     -13.226  -1.856  -0.463  0.00  0.00    +0.000 C 
ATOM      2  C   UNL     1     -12.050  -2.802  -0.337  0.00  0.00    +0.000 C 
ATOM      3  C   UNL     1     -11.535  -2.692   1.052  0.00  0.00    +0.000 C 
ATOM      4  C   UNL     1     -11.169  -2.479  -1.462  0.00  0.00    +0.000 C 
ATOM      5  C   UNL     1      -9.850  -3.439  -1.418  0.00  0.00    +0.000 C 
ATOM      6  C   UNL     1     -10.392  -4.788  -0.886  0.00  0.00    +0.000 A 
ATOM      7  C   UNL     1      -9.412  -5.761  -0.826  0.00  0.00    +0.000 A 
ATOM      8  C   UNL     1      -9.701  -7.050  -0.403  0.00  0.00    +0.000 A 
ATOM      9  N   UNL     1      -8.703  -8.075  -0.337  0.00  0.00    +0.000 NA
ATOM     10  C   UNL     1     -11.006  -7.382  -0.026  0.00  0.00    +0.000 A 
ATOM     11  C   UNL     1     -11.976  -6.392  -0.094  0.00  0.00    +0.000 A 
ATOM     12  C   UNL     1     -11.632  -5.087  -0.535  0.00  0.00    +0.000 A 
ATOM     13  O   UNL     1     -12.594  -4.102  -0.605  0.00  0.00    +0.000 OA
ENDROOT
BRANCH   5  14
ATOM     14  N   UNL     1      -9.310  -2.837  -0.065  0.00  0.00    +0.000 NA
BRANCH  14  15
ATOM     15  C   UNL     1      -8.193  -2.037  -0.558  0.00  0.00    +0.000 C 
ATOM     16  C   UNL     1      -7.265  -1.679   0.579  0.00  0.00    +0.000 C 
ATOM     17  C   UNL     1      -5.823  -1.590   0.235  0.00  0.00    +0.000 C 
ATOM     18  C   UNL     1      -5.473  -2.883  -0.481  0.00  0.00    +0.000 C 
ATOM     19  C   UNL     1      -6.129  -2.819  -1.823  0.00  0.00    +0.000 C 
ATOM     20  C   UNL     1      -7.561  -2.443  -1.795  0.00  0.00    +0.000 C 
BRANCH  18  21
ATOM     21  C   UNL     1      -4.023  -3.024  -0.633  0.00  0.00    +0.000 C 
ATOM     22  O   UNL     1      -3.463  -4.028  -0.084  0.00  0.00    +0.000 OA
ATOM     23  O   UNL     1      -3.200  -2.150  -1.325  0.00  0.00    +0.000 OA
ENDBRANCH  18  21
ENDBRANCH  14  15
ENDBRANCH   5  14
TORSDOF 3
ENDMDL
MODEL 2
REMARK VINA RESULT:      -5.6      1.878      6.067
REMARK  Name = 
REMARK  3 active torsions:
REMARK  status: ('A' for Active; 'I' for Inactive)
REMARK    1  A    between atoms: C_5  and  N_6
REMARK    2  A    between atoms: N_6  and  C_7
REMARK    3  A    between atoms: C_10  and  C_11
REMARK                            x       y       z     vdW  Elec       q    Type
REMARK                         _______ _______ _______ _____ _____    ______ ____
ROOT
ATOM      1  C   UNL     1      -2.942  -2.065  -1.337  0.00  0.00    +0.000 C 
ATOM      2  C   UNL     1      -4.222  -2.872  -1.288  0.00  0.00    +0.000 C 
ATOM      3  C   UNL     1      -4.713  -3.017  -2.682  0.00  0.00    +0.000 C 
ATOM      4  C   UNL     1      -5.064  -2.207  -0.290  0.00  0.00    +0.000 C 
ATOM      5  C   UNL     1      -6.488  -2.994  -0.162  0.00  0.00    +0.000 C 
ATOM      6  C   UNL     1      -6.108  -4.481  -0.366  0.00  0.00    +0.000 A 
ATOM      7  C   UNL     1      -7.198  -5.323  -0.241  0.00  0.00    +0.000 A 
ATOM      8  C   UNL     1      -7.063  -6.699  -0.360  0.00  0.00    +0.000 A 
ATOM      9  N   UNL     1      -8.176  -7.590  -0.230  0.00  0.00    +0.000 NA
ATOM     10  C   UNL     1      -5.805  -7.254  -0.613  0.00  0.00    +0.000 A 
ATOM     11  C   UNL     1      -4.725  -6.394  -0.734  0.00  0.00    +0.000 A 
ATOM     12  C   UNL     1      -4.912  -4.992  -0.603  0.00  0.00    +0.000 A 
ATOM     13  O   UNL     1      -3.839  -4.134  -0.722  0.00  0.00    +0.000 OA
ENDROOT
BRANCH   5  14
ATOM     14  N   UNL     1      -6.944  -2.651  -1.632  0.00  0.00    +0.000 NA
BRANCH  14  15
ATOM     15  C   UNL     1      -8.269  -2.093  -1.374  0.00  0.00    +0.000 C 
ATOM     16  C   UNL     1      -9.318  -2.859  -2.145  0.00  0.00    +0.000 C 
ATOM     17  C   UNL     1     -10.642  -2.988  -1.485  0.00  0.00    +0.000 C 
ATOM     18  C   UNL     1     -10.374  -3.519  -0.087  0.00  0.00    +0.000 C 
ATOM     19  C   UNL     1      -9.740  -2.403   0.679  0.00  0.00    +0.000 C 
ATOM     20  C   UNL     1      -8.605  -1.746  -0.009  0.00  0.00    +0.000 C 
BRANCH  18  21
ATOM     21  C   UNL     1     -11.618  -3.938   0.563  0.00  0.00    +0.000 C 
ATOM     22  O   UNL     1     -12.660  -4.045  -0.160  0.00  0.00    +0.000 OA
ATOM     23  O   UNL     1     -11.760  -4.227   1.911  0.00  0.00    +0.000 OA
ENDBRANCH  18  21
ENDBRANCH  14  15
ENDBRANCH   5  14
TORSDOF 3
ENDMDL
MODEL 3
REMARK VINA RESULT:      -5.5      2.487      6.707
REMARK  Name = 
REMARK  3 active torsions:
REMARK  status: ('A' for Active; 'I' for Inactive)
REMARK    1  A    between atoms: C_5  and  N_6
REMARK    2  A    between atoms: N_6  and  C_7
REMARK    3  A    between atoms: C_10  and  C_11
REMARK                            x       y       z     vdW  Elec       q    Type
REMARK                         _______ _______ _______ _____ _____    ______ ____
ROOT
ATOM      1  C   UNL     1      -7.624  -1.849  -1.322  0.00  0.00    +0.000 C 
ATOM      2  C   UNL     1      -8.876  -2.700  -1.300  0.00  0.00    +0.000 C 
ATOM      3  C   UNL     1      -9.328  -2.870  -2.705  0.00  0.00    +0.000 C 
ATOM      4  C   UNL     1      -9.765  -2.059  -0.328  0.00  0.00    +0.000 C 
ATOM      5  C   UNL     1     -11.164  -2.893  -0.230  0.00  0.00    +0.000 C 
ATOM      6  C   UNL     1     -10.729  -4.368  -0.414  0.00  0.00    +0.000 A 
ATOM      7  C   UNL     1     -11.791  -5.246  -0.311  0.00  0.00    +0.000 A 
ATOM      8  C   UNL     1     -11.606  -6.617  -0.417  0.00  0.00    +0.000 A 
ATOM      9  N   UNL     1     -12.691  -7.546  -0.309  0.00  0.00    +0.000 NA
ATOM     10  C   UNL     1     -10.324  -7.130  -0.635  0.00  0.00    +0.000 A 
ATOM     11  C   UNL     1      -9.271  -6.233  -0.735  0.00  0.00    +0.000 A 
ATOM     12  C   UNL     1      -9.510  -4.839  -0.619  0.00  0.00    +0.000 A 
ATOM     13  O   UNL     1      -8.464  -3.945  -0.716  0.00  0.00    +0.000 OA
ENDROOT
BRANCH   5  14
ATOM     14  N   UNL     1     -11.596  -2.575  -1.712  0.00  0.00    +0.000 NA
BRANCH  14  15
ATOM     15  C   UNL     1     -12.919  -2.001  -1.485  0.00  0.00    +0.000 C 
ATOM     16  C   UNL     1     -13.975  -2.836  -2.170  0.00  0.00    +0.000 C 
ATOM     17  C   UNL     1     -15.289  -2.910  -1.482  0.00  0.00    +0.000 C 
ATOM     18  C   UNL     1     -14.999  -3.315  -0.046  0.00  0.00    +0.000 C 
ATOM     19  C   UNL     1     -14.359  -2.133   0.608  0.00  0.00    +0.000 C 
ATOM     20  C   UNL     1     -13.237  -1.535  -0.152  0.00  0.00    +0.000 C 
BRANCH  18  21
ATOM     21  C   UNL     1     -16.231  -3.678   0.657  0.00  0.00    +0.000 C 
ATOM     22  O   UNL     1     -17.197  -4.136  -0.035  0.00  0.00    +0.000 OA
ATOM     23  O   UNL     1     -16.439  -3.562   2.022  0.00  0.00    +0.000 OA
ENDBRANCH  18  21
ENDBRANCH  14  15
ENDBRANCH   5  14
TORSDOF 3
ENDMDL
MODEL 4
REMARK VINA RESULT:      -5.4      7.116      9.795
REMARK  Name = 
REMARK  3 active torsions:
REMARK  status: ('A' for Active; 'I' for Inactive)
REMARK    1  A    between atoms: C_5  and  N_6
REMARK    2  A    between atoms: N_6  and  C_7
REMARK    3  A    between atoms: C_10  and  C_11
REMARK                            x       y       z     vdW  Elec       q    Type
REMARK                         _______ _______ _______ _____ _____    ______ ____
ROOT
ATOM      1  C   UNL     1     -20.292 -11.441  -0.481  0.00  0.00    +0.000 C 
ATOM      2  C   UNL     1     -19.022 -10.626  -0.602  0.00  0.00    +0.000 C 
ATOM      3  C   UNL     1     -18.772 -10.399  -2.048  0.00  0.00    +0.000 C 
ATOM      4  C   UNL     1     -18.024 -11.338   0.201  0.00  0.00    +0.000 C 
ATOM      5  C   UNL     1     -16.599 -10.547   0.132  0.00  0.00    +0.000 C 
ATOM      6  C   UNL     1     -17.007  -9.054   0.080  0.00  0.00    +0.000 A 
ATOM      7  C   UNL     1     -15.911  -8.211   0.068  0.00  0.00    +0.000 A 
ATOM      8  C   UNL     1     -16.064  -6.832   0.052  0.00  0.00    +0.000 A 
ATOM      9  N   UNL     1     -14.945  -5.939   0.044  0.00  0.00    +0.000 NA
ATOM     10  C   UNL     1     -17.346  -6.274   0.046  0.00  0.00    +0.000 A 
ATOM     11  C   UNL     1     -18.432  -7.137   0.059  0.00  0.00    +0.000 A 
ATOM     12  C   UNL     1     -18.226  -8.541   0.077  0.00  0.00    +0.000 A 
ATOM     13  O   UNL     1     -19.304  -9.401   0.091  0.00  0.00    +0.000 OA
ENDROOT
BRANCH   5  14
ATOM     14  N   UNL     1     -16.396 -10.803  -1.410  0.00  0.00    +0.000 NA
BRANCH  14  15
ATOM     15  C   UNL     1     -15.064 -11.402  -1.406  0.00  0.00    +0.000 C 
ATOM     16  C   UNL     1     -14.130 -10.605  -2.285  0.00  0.00    +0.000 C 
ATOM     17  C   UNL     1     -12.714 -10.547  -1.840  0.00  0.00    +0.000 C 
ATOM     18  C   UNL     1     -12.739 -10.109  -0.386  0.00  0.00    +0.000 C 
ATOM     19  C   UNL     1     -13.276 -11.263   0.398  0.00  0.00    +0.000 C 
ATOM     20  C   UNL     1     -14.525 -11.849  -0.140  0.00  0.00    +0.000 C 
BRANCH  18  21
ATOM     21  C   UNL     1     -11.395  -9.760   0.082  0.00  0.00    +0.000 C 
ATOM     22  O   UNL     1     -10.897  -8.656  -0.312  0.00  0.00    +0.000 OA
ATOM     23  O   UNL     1     -10.612 -10.536   0.920  0.00  0.00    +0.000 OA
ENDBRANCH  18  21
ENDBRANCH  14  15
ENDBRANCH   5  14
TORSDOF 3
ENDMDL
MODEL 5
REMARK VINA RESULT:      -5.4      3.178      4.449
REMARK  Name = 
REMARK  3 active torsions:
REMARK  status: ('A' for Active; 'I' for Inactive)
REMARK    1  A    between atoms: C_5  and  N_6
REMARK    2  A    between atoms: N_6  and  C_7
REMARK    3  A    between atoms: C_10  and  C_11
REMARK                            x       y       z     vdW  Elec       q    Type
REMARK                         _______ _______ _______ _____ _____    ______ ____
ROOT
ATOM      1  C   UNL     1     -17.726  -1.919  -0.230  0.00  0.00    +0.000 C 
ATOM      2  C   UNL     1     -16.515  -2.826  -0.156  0.00  0.00    +0.000 C 
ATOM      3  C   UNL     1     -15.913  -2.660   1.191  0.00  0.00    +0.000 C 
ATOM      4  C   UNL     1     -15.721  -2.511  -1.346  0.00  0.00    +0.000 C 
ATOM      5  C   UNL     1     -14.372  -3.431  -1.364  0.00  0.00    +0.000 C 
ATOM      6  C   UNL     1     -14.837  -4.779  -0.760  0.00  0.00    +0.000 A 
ATOM      7  C   UNL     1     -13.824  -5.720  -0.738  0.00  0.00    +0.000 A 
ATOM      8  C   UNL     1     -14.046  -7.004  -0.260  0.00  0.00    +0.000 A 
ATOM      9  N   UNL     1     -13.014  -7.997  -0.233  0.00  0.00    +0.000 NA
ATOM     10  C   UNL     1     -15.312  -7.362   0.211  0.00  0.00    +0.000 A 
ATOM     11  C   UNL     1     -16.314  -6.404   0.180  0.00  0.00    +0.000 A 
ATOM     12  C   UNL     1     -16.041  -5.103  -0.318  0.00  0.00    +0.000 A 
ATOM     13  O   UNL     1     -17.036  -4.149  -0.351  0.00  0.00    +0.000 OA
ENDROOT
BRANCH   5  14
ATOM     14  N   UNL     1     -13.764  -2.774  -0.067  0.00  0.00    +0.000 NA
BRANCH  14  15
ATOM     15  C   UNL     1     -12.678  -1.991  -0.651  0.00  0.00    +0.000 C 
ATOM     16  C   UNL     1     -11.745  -1.503   0.431  0.00  0.00    +0.000 C 
ATOM     17  C   UNL     1     -10.312  -1.406   0.056  0.00  0.00    +0.000 C 
ATOM     18  C   UNL     1      -9.933  -2.750  -0.544  0.00  0.00    +0.000 C 
ATOM     19  C   UNL     1     -10.611  -2.829  -1.874  0.00  0.00    +0.000 C 
ATOM     20  C   UNL     1     -12.053  -2.493  -1.856  0.00  0.00    +0.000 C 
BRANCH  18  21
ATOM     21  C   UNL     1      -8.482  -2.864  -0.706  0.00  0.00    +0.000 C 
ATOM     22  O   UNL     1      -7.817  -3.389   0.244  0.00  0.00    +0.000 OA
ATOM     23  O   UNL     1      -7.764  -2.443  -1.814  0.00  0.00    +0.000 OA
ENDBRANCH  18  21
ENDBRANCH  14  15
ENDBRANCH   5  14
TORSDOF 3
ENDMDL
