MODEL 1
REMARK VINA RESULT:      -5.6      0.000      0.000
REMARK  Name = 
REMARK  4 active torsions:
REMARK  status: ('A' for Active; 'I' for Inactive)
REMARK    1  A    between atoms: N_12  and  C_13
REMARK    2  A    between atoms: C_13  and  C_14
REMARK    3  A    between atoms: C_18  and  C_19
REMARK    4  A    between atoms: C_22  and  C_23
REMARK                            x       y       z     vdW  Elec       q    Type
REMARK                         _______ _______ _______ _____ _____    ______ ____
ROOT
ATOM      1  C   UNL     1     -14.544  -2.699   0.427  0.00  0.00    +0.000 C 
ENDROOT
BRANCH   1  13
ATOM      2  C   UNL     1     -12.560  -0.999  -0.508  0.00  0.00    +0.000 C 
ATOM      3  C   UNL     1     -12.338  -2.477  -0.427  0.00  0.00    +0.000 A 
ATOM      4  N   UNL     1     -11.174  -3.037  -0.803  0.00  0.00    +0.000 NA
ATOM      5  C   UNL     1     -10.945  -4.368  -0.741  0.00  0.00    +0.000 A 
ATOM      6  C   UNL     1      -9.747  -4.928  -1.128  0.00  0.00    +0.000 A 
ATOM      7  C   UNL     1      -9.526  -6.289  -1.060  0.00  0.00    +0.000 A 
ATOM      8  C   UNL     1     -10.499  -7.153  -0.598  0.00  0.00    +0.000 A 
ATOM      9  C   UNL     1     -11.696  -6.582  -0.213  0.00  0.00    +0.000 A 
ATOM     10  C   UNL     1     -11.922  -5.225  -0.279  0.00  0.00    +0.000 A 
ATOM     11  C   UNL     1     -13.114  -4.651   0.106  0.00  0.00    +0.000 A 
ATOM     12  O   UNL     1     -14.041  -5.394   0.537  0.00  0.00    +0.000 OA
ATOM     13  N   UNL     1     -13.294  -3.309   0.024  0.00  0.00    +0.000 N 
ENDBRANCH   1  13
BRANCH   1  14
ATOM     14  C   UNL     1     -15.568  -2.777  -0.647  0.00  0.00    +0.000 C 
ATOM     15  O   UNL     1     -15.152  -2.981  -1.814  0.00  0.00    +0.000 OA
ATOM     16  N   UNL     1     -16.935  -2.640  -0.436  0.00  0.00    +0.000 N 
ATOM     17  C   UNL     1     -18.227  -2.643  -1.131  0.00  0.00    +0.000 C 
ATOM     18  C   UNL     1     -18.693  -1.483  -0.085  0.00  0.00    +0.000 C 
ATOM     19  C   UNL     1     -17.682  -2.378   0.958  0.00  0.00    +0.000 C 
BRANCH  18  20
ATOM     20  C   UNL     1     -20.135  -2.159   0.204  0.00  0.00    +0.000 C 
ATOM     21  C   UNL     1     -20.675  -2.604  -1.147  0.00  0.00    +0.000 C 
ATOM     22  C   UNL     1     -20.954  -0.988   0.668  0.00  0.00    +0.000 C 
ENDBRANCH  18  20
BRANCH  19  23
ATOM     23  C   UNL     1     -18.468  -3.827   0.961  0.00  0.00    +0.000 C 
ATOM     24  C   UNL     1     -18.997  -3.923   2.364  0.00  0.00    +0.000 C 
ATOM     25  C   UNL     1     -17.329  -4.838   0.826  0.00  0.00    +0.000 C 
ENDBRANCH  19  23
ENDBRANCH   1  14
TORSDOF 4
ENDMDL
MODEL 2
REMARK VINA RESULT:      -5.6      3.009      4.726
REMARK  Name = 
REMARK  4 active torsions:
REMARK  status: ('A' for Active; 'I' for Inactive)
REMARK    1  A    between atoms: N_12  and  C_13
REMARK    2  A    between atoms: C_13  and  C_14
REMARK    3  A    between atoms: C_18  and  C_19
REMARK    4  A    between atoms: C_22  and  C_23
REMARK                            x       y       z     vdW  Elec       q    Type
REMARK                         _______ _______ _______ _____ _____    ______ ____
ROOT
ATOM      1  C   UNL     1      -9.832  -2.739   0.398  0.00  0.00    +0.000 C 
ENDROOT
BRANCH   1  13
ATOM      2  C   UNL     1      -7.846  -1.014  -0.487  0.00  0.00    +0.000 C 
ATOM      3  C   UNL     1      -7.614  -2.491  -0.416  0.00  0.00    +0.000 A 
ATOM      4  N   UNL     1      -6.439  -3.038  -0.776  0.00  0.00    +0.000 NA
ATOM      5  C   UNL     1      -6.200  -4.367  -0.722  0.00  0.00    +0.000 A 
ATOM      6  C   UNL     1      -4.990  -4.914  -1.093  0.00  0.00    +0.000 A 
ATOM      7  C   UNL     1      -4.759  -6.273  -1.033  0.00  0.00    +0.000 A 
ATOM      8  C   UNL     1      -5.733  -7.150  -0.596  0.00  0.00    +0.000 A 
ATOM      9  C   UNL     1      -6.941  -6.593  -0.226  0.00  0.00    +0.000 A 
ATOM     10  C   UNL     1      -7.177  -5.237  -0.284  0.00  0.00    +0.000 A 
ATOM     11  C   UNL     1      -8.380  -4.677   0.085  0.00  0.00    +0.000 A 
ATOM     12  O   UNL     1      -9.309  -5.431   0.493  0.00  0.00    +0.000 OA
ATOM     13  N   UNL     1      -8.570  -3.335   0.011  0.00  0.00    +0.000 N 
ENDBRANCH   1  13
BRANCH   1  14
ATOM     14  C   UNL     1     -10.848  -2.849  -0.681  0.00  0.00    +0.000 C 
ATOM     15  O   UNL     1     -10.424  -3.093  -1.837  0.00  0.00    +0.000 OA
ATOM     16  N   UNL     1     -12.217  -2.701  -0.485  0.00  0.00    +0.000 N 
ATOM     17  C   UNL     1     -13.503  -2.722  -1.189  0.00  0.00    +0.000 C 
ATOM     18  C   UNL     1     -13.972  -1.526  -0.187  0.00  0.00    +0.000 C 
ATOM     19  C   UNL     1     -12.973  -2.389   0.893  0.00  0.00    +0.000 C 
BRANCH  18  20
ATOM     20  C   UNL     1     -15.419  -2.187   0.114  0.00  0.00    +0.000 C 
ATOM     21  C   UNL     1     -15.989  -2.596  -1.237  0.00  0.00    +0.000 C 
ATOM     22  C   UNL     1     -16.212  -1.014   0.616  0.00  0.00    +0.000 C 
ENDBRANCH  18  20
BRANCH  19  23
ATOM     23  C   UNL     1     -13.765  -3.835   0.938  0.00  0.00    +0.000 C 
ATOM     24  C   UNL     1     -14.334  -3.867   2.328  0.00  0.00    +0.000 C 
ATOM     25  C   UNL     1     -12.626  -4.854   0.882  0.00  0.00    +0.000 C 
ENDBRANCH  19  23
ENDBRANCH   1  14
TORSDOF 4
ENDMDL
MODEL 3
REMARK VINA RESULT:      -5.6      4.237      6.408
REMARK  Name = 
REMARK  4 active torsions:
REMARK  status: ('A' for Active; 'I' for Inactive)
REMARK    1  A    between atoms: N_12  and  C_13
REMARK    2  A    between atoms: C_13  and  C_14
REMARK    3  A    between atoms: C_18  and  C_19
REMARK    4  A    between atoms: C_22  and  C_23
REMARK                            x       y       z     vdW  Elec       q    Type
REMARK                         _______ _______ _______ _____ _____    ______ ____
ROOT
ATOM      1  C   UNL     1      -8.685  -2.248  -0.262  0.00  0.00    +0.000 C 
ENDROOT
BRANCH   1  13
ATOM      2  C   UNL     1      -6.428  -0.743   0.327  0.00  0.00    +0.000 C 
ATOM      3  C   UNL     1      -6.331  -2.213   0.064  0.00  0.00    +0.000 A 
ATOM      4  N   UNL     1      -5.152  -2.860   0.104  0.00  0.00    +0.000 NA
ATOM      5  C   UNL     1      -5.034  -4.186  -0.129  0.00  0.00    +0.000 A 
ATOM      6  C   UNL     1      -3.819  -4.837  -0.085  0.00  0.00    +0.000 A 
ATOM      7  C   UNL     1      -3.712  -6.191  -0.324  0.00  0.00    +0.000 A 
ATOM      8  C   UNL     1      -4.821  -6.959  -0.620  0.00  0.00    +0.000 A 
ATOM      9  C   UNL     1      -6.033  -6.299  -0.661  0.00  0.00    +0.000 A 
ATOM     10  C   UNL     1      -6.146  -4.948  -0.423  0.00  0.00    +0.000 A 
ATOM     11  C   UNL     1      -7.354  -4.285  -0.463  0.00  0.00    +0.000 A 
ATOM     12  O   UNL     1      -8.403  -4.937  -0.728  0.00  0.00    +0.000 OA
ATOM     13  N   UNL     1      -7.419  -2.951  -0.223  0.00  0.00    +0.000 N 
ENDBRANCH   1  13
BRANCH   1  14
ATOM     14  C   UNL     1      -9.598  -2.695   0.821  0.00  0.00    +0.000 C 
ATOM     15  O   UNL     1      -9.199  -2.537   2.001  0.00  0.00    +0.000 OA
ATOM     16  N   UNL     1     -10.847  -3.267   0.605  0.00  0.00    +0.000 N 
ATOM     17  C   UNL     1     -12.011  -3.821   1.305  0.00  0.00    +0.000 C 
ATOM     18  C   UNL     1     -12.120  -4.898   0.087  0.00  0.00    +0.000 C 
ATOM     19  C   UNL     1     -11.550  -3.560  -0.805  0.00  0.00    +0.000 C 
BRANCH  18  20
ATOM     20  C   UNL     1     -13.723  -4.732  -0.071  0.00  0.00    +0.000 C 
ATOM     21  C   UNL     1     -14.308  -4.896   1.324  0.00  0.00    +0.000 C 
ATOM     22  C   UNL     1     -14.095  -5.946  -0.875  0.00  0.00    +0.000 C 
ENDBRANCH  18  20
BRANCH  19  23
ATOM     23  C   UNL     1     -12.784  -2.494  -0.560  0.00  0.00    +0.000 C 
ATOM     24  C   UNL     1     -13.435  -2.412  -1.911  0.00  0.00    +0.000 C 
ATOM     25  C   UNL     1     -12.055  -1.172  -0.317  0.00  0.00    +0.000 C 
ENDBRANCH  19  23
ENDBRANCH   1  14
TORSDOF 4
ENDMDL
MODEL 4
REMARK VINA RESULT:      -5.6      6.226      8.383
REMARK  Name = 
REMARK  4 active torsions:
REMARK  status: ('A' for Active; 'I' for Inactive)
REMARK    1  A    between atoms: N_12  and  C_13
REMARK    2  A    between atoms: C_13  and  C_14
REMARK    3  A    between atoms: C_18  and  C_19
REMARK    4  A    between atoms: C_22  and  C_23
REMARK                            x       y       z     vdW  Elec       q    Type
REMARK                         _______ _______ _______ _____ _____    ______ ____
ROOT
ATOM      1  C   UNL     1      -9.436  -8.042   0.797  0.00  0.00    +0.000 C 
ENDROOT
BRANCH   1  13
ATOM      2  C   UNL     1      -7.755  -6.813   2.632  0.00  0.00    +0.000 C 
ATOM      3  C   UNL     1      -7.209  -7.681   1.541  0.00  0.00    +0.000 A 
ATOM      4  N   UNL     1      -5.888  -7.899   1.409  0.00  0.00    +0.000 NA
ATOM      5  C   UNL     1      -5.365  -8.677   0.435  0.00  0.00    +0.000 A 
ATOM      6  C   UNL     1      -4.010  -8.892   0.311  0.00  0.00    +0.000 A 
ATOM      7  C   UNL     1      -3.489  -9.690  -0.687  0.00  0.00    +0.000 A 
ATOM      8  C   UNL     1      -4.307 -10.311  -1.611  0.00  0.00    +0.000 A 
ATOM      9  C   UNL     1      -5.663 -10.089  -1.479  0.00  0.00    +0.000 A 
ATOM     10  C   UNL     1      -6.188  -9.295  -0.484  0.00  0.00    +0.000 A 
ATOM     11  C   UNL     1      -7.541  -9.072  -0.348  0.00  0.00    +0.000 A 
ATOM     12  O   UNL     1      -8.338  -9.615  -1.165  0.00  0.00    +0.000 OA
ATOM     13  N   UNL     1      -8.015  -8.280   0.647  0.00  0.00    +0.000 N 
ENDBRANCH   1  13
BRANCH   1  14
ATOM     14  C   UNL     1     -10.169  -9.284   1.154  0.00  0.00    +0.000 C 
ATOM     15  O   UNL     1      -9.681  -9.987   2.073  0.00  0.00    +0.000 OA
ATOM     16  N   UNL     1     -11.343  -9.703   0.539  0.00  0.00    +0.000 N 
ATOM     17  C   UNL     1     -12.347 -10.773   0.552  0.00  0.00    +0.000 C 
ATOM     18  C   UNL     1     -12.428 -10.597  -1.066  0.00  0.00    +0.000 C 
ATOM     19  C   UNL     1     -12.136  -8.969  -0.645  0.00  0.00    +0.000 C 
BRANCH  18  20
ATOM     20  C   UNL     1     -14.046 -10.635  -1.106  0.00  0.00    +0.000 C 
ATOM     21  C   UNL     1     -14.461 -11.898  -0.366  0.00  0.00    +0.000 C 
ATOM     22  C   UNL     1     -14.328 -10.840  -2.568  0.00  0.00    +0.000 C 
ENDBRANCH  18  20
BRANCH  19  23
ATOM     23  C   UNL     1     -13.473  -8.655   0.267  0.00  0.00    +0.000 C 
ATOM     24  C   UNL     1     -14.254  -7.703  -0.593  0.00  0.00    +0.000 C 
ATOM     25  C   UNL     1     -12.909  -7.859   1.444  0.00  0.00    +0.000 C 
ENDBRANCH  19  23
ENDBRANCH   1  14
TORSDOF 4
ENDMDL
MODEL 5
REMARK VINA RESULT:      -5.5      2.632      3.963
REMARK  Name = 
REMARK  4 active torsions:
REMARK  status: ('A' for Active; 'I' for Inactive)
REMARK    1  A    between atoms: N_12  and  C_13
REMARK    2  A    between atoms: C_13  and  C_14
REMARK    3  A    between atoms: C_18  and  C_19
REMARK    4  A    between atoms: C_22  and  C_23
REMARK                            x       y       z     vdW  Elec       q    Type
REMARK                         _______ _______ _______ _____ _____    ______ ____
ROOT
ATOM      1  C   UNL     1     -11.854  -3.656   0.412  0.00  0.00    +0.000 C 
ENDROOT
BRANCH   1  13
ATOM      2  C   UNL     1     -10.747  -5.961  -0.667  0.00  0.00    +0.000 C 
ATOM      3  C   UNL     1      -9.910  -4.746  -0.413  0.00  0.00    +0.000 A 
ATOM      4  N   UNL     1      -8.596  -4.722  -0.697  0.00  0.00    +0.000 NA
ATOM      5  C   UNL     1      -7.816  -3.640  -0.480  0.00  0.00    +0.000 A 
ATOM      6  C   UNL     1      -6.470  -3.630  -0.776  0.00  0.00    +0.000 A 
ATOM      7  C   UNL     1      -5.685  -2.518  -0.549  0.00  0.00    +0.000 A 
ATOM      8  C   UNL     1      -6.215  -1.361  -0.013  0.00  0.00    +0.000 A 
ATOM      9  C   UNL     1      -7.564  -1.381   0.280  0.00  0.00    +0.000 A 
ATOM     10  C   UNL     1      -8.352  -2.487   0.056  0.00  0.00    +0.000 A 
ATOM     11  C   UNL     1      -9.699  -2.511   0.346  0.00  0.00    +0.000 A 
ATOM     12  O   UNL     1     -10.239  -1.480   0.839  0.00  0.00    +0.000 OA
ATOM     13  N   UNL     1     -10.438  -3.624   0.109  0.00  0.00    +0.000 N 
ENDBRANCH   1  13
BRANCH   1  14
ATOM     14  C   UNL     1     -12.667  -3.086  -0.693  0.00  0.00    +0.000 C 
ATOM     15  O   UNL     1     -12.042  -2.650  -1.691  0.00  0.00    +0.000 OA
ATOM     16  N   UNL     1     -14.056  -3.011  -0.685  0.00  0.00    +0.000 N 
ATOM     17  C   UNL     1     -15.203  -2.567  -1.485  0.00  0.00    +0.000 C 
ATOM     18  C   UNL     1     -15.903  -2.133  -0.079  0.00  0.00    +0.000 C 
ATOM     19  C   UNL     1     -15.048  -3.503   0.473  0.00  0.00    +0.000 C 
BRANCH  18  20
ATOM     20  C   UNL     1     -17.338  -2.778  -0.459  0.00  0.00    +0.000 C 
ATOM     21  C   UNL     1     -17.715  -2.206  -1.818  0.00  0.00    +0.000 C 
ATOM     22  C   UNL     1     -18.249  -2.170   0.570  0.00  0.00    +0.000 C 
ENDBRANCH  18  20
BRANCH  19  23
ATOM     23  C   UNL     1     -15.750  -4.678  -0.446  0.00  0.00    +0.000 C 
ATOM     24  C   UNL     1     -16.527  -5.478   0.560  0.00  0.00    +0.000 C 
ATOM     25  C   UNL     1     -14.558  -5.527  -0.889  0.00  0.00    +0.000 C 
ENDBRANCH  19  23
ENDBRANCH   1  14
TORSDOF 4
ENDMDL
