MODEL 1
REMARK VINA RESULT:      -4.9      0.000      0.000
REMARK  Name = 
REMARK  6 active torsions:
REMARK  status: ('A' for Active; 'I' for Inactive)
REMARK    1  A    between atoms: C_2  and  C_3
REMARK    2  A    between atoms: C_3  and  C_4
REMARK    3  A    between atoms: C_4  and  C_5
REMARK    4  A    between atoms: C_5  and  C_6
REMARK    5  A    between atoms: C_5  and  O_8
REMARK    6  A    between atoms: O_8  and  C_9
REMARK                            x       y       z     vdW  Elec       q    Type
REMARK                         _______ _______ _______ _____ _____    ______ ____
ROOT
ATOM      1  C   UNL     1      -8.755  -8.354  -0.047  0.00  0.00    +0.000 A 
ATOM      2  C   UNL     1      -9.280  -7.072  -0.028  0.00  0.00    +0.000 A 
ATOM      3  C   UNL     1      -8.447  -5.984  -0.168  0.00  0.00    +0.000 A 
ATOM      4  C   UNL     1      -7.101  -6.125  -0.325  0.00  0.00    +0.000 A 
ATOM      5  C   UNL     1      -6.561  -7.379  -0.355  0.00  0.00    +0.000 A 
ATOM      6  C   UNL     1      -5.235  -7.604  -0.570  0.00  0.00    +0.000 A 
ATOM      7  N   UNL     1      -4.748  -8.830  -0.639  0.00  0.00    +0.000 NA
ATOM      8  C   UNL     1      -5.550  -9.954  -0.507  0.00  0.00    +0.000 A 
ATOM      9  N   UNL     1      -6.851  -9.692  -0.305  0.00  0.00    +0.000 NA
ATOM     10  C   UNL     1      -7.411  -8.488  -0.222  0.00  0.00    +0.000 A 
ENDROOT
BRANCH   1  11
ATOM     11  O   UNL     1      -9.567  -9.474   0.119  0.00  0.00    +0.000 OA
BRANCH  11  12
ATOM     12  C   UNL     1     -10.688  -9.445  -1.020  0.00  0.00    +0.000 C 
BRANCH  12  13
ATOM     13  C   UNL     1     -10.042 -10.678  -1.901  0.00  0.00    +0.000 C 
ATOM     14  C   UNL     1      -9.836 -10.177  -3.300  0.00  0.00    +0.000 C 
ENDBRANCH  12  13
BRANCH  12  15
ATOM     15  C   UNL     1     -11.570 -10.648  -0.107  0.00  0.00    +0.000 C 
BRANCH  15  16
ATOM     16  C   UNL     1     -12.950  -9.997  -0.318  0.00  0.00    +0.000 C 
BRANCH  16  18
ATOM     17  C   UNL     1     -14.381 -11.072  -2.074  0.00  0.00    +0.000 C 
ATOM     18  C   UNL     1     -13.866 -11.091  -0.885  0.00  0.00    +0.000 C 
ENDBRANCH  16  18
ENDBRANCH  15  16
ENDBRANCH  12  15
ENDBRANCH  11  12
ENDBRANCH   1  11
TORSDOF 6
ENDMDL
MODEL 2
REMARK VINA RESULT:      -4.9      2.938      4.695
REMARK  Name = 
REMARK  6 active torsions:
REMARK  status: ('A' for Active; 'I' for Inactive)
REMARK    1  A    between atoms: C_2  and  C_3
REMARK    2  A    between atoms: C_3  and  C_4
REMARK    3  A    between atoms: C_4  and  C_5
REMARK    4  A    between atoms: C_5  and  C_6
REMARK    5  A    between atoms: C_5  and  O_8
REMARK    6  A    between atoms: O_8  and  C_9
REMARK                            x       y       z     vdW  Elec       q    Type
REMARK                         _______ _______ _______ _____ _____    ______ ____
ROOT
ATOM      1  C   UNL     1     -13.322  -8.955  -0.165  0.00  0.00    +0.000 A 
ATOM      2  C   UNL     1     -13.655  -7.631   0.072  0.00  0.00    +0.000 A 
ATOM      3  C   UNL     1     -12.685  -6.655   0.017  0.00  0.00    +0.000 A 
ATOM      4  C   UNL     1     -11.385  -6.950  -0.266  0.00  0.00    +0.000 A 
ATOM      5  C   UNL     1     -11.033  -8.246  -0.511  0.00  0.00    +0.000 A 
ATOM      6  C   UNL     1      -9.768  -8.612  -0.860  0.00  0.00    +0.000 A 
ATOM      7  N   UNL     1      -9.467  -9.868  -1.136  0.00  0.00    +0.000 NA
ATOM      8  C   UNL     1     -10.413 -10.882  -1.096  0.00  0.00    +0.000 A 
ATOM      9  N   UNL     1     -11.648 -10.482  -0.757  0.00  0.00    +0.000 NA
ATOM     10  C   UNL     1     -12.024  -9.240  -0.464  0.00  0.00    +0.000 A 
ENDROOT
BRANCH   1  11
ATOM     11  O   UNL     1     -14.274  -9.968  -0.090  0.00  0.00    +0.000 OA
BRANCH  11  12
ATOM     12  C   UNL     1     -15.359  -9.712  -1.235  0.00  0.00    +0.000 C 
BRANCH  12  13
ATOM     13  C   UNL     1     -14.817 -10.907  -2.230  0.00  0.00    +0.000 C 
ATOM     14  C   UNL     1     -14.826 -10.372  -3.631  0.00  0.00    +0.000 C 
ENDBRANCH  12  13
BRANCH  12  15
ATOM     15  C   UNL     1     -16.376 -10.908  -0.463  0.00  0.00    +0.000 C 
BRANCH  15  16
ATOM     16  C   UNL     1     -17.685 -10.117  -0.649  0.00  0.00    +0.000 C 
BRANCH  16  18
ATOM     17  C   UNL     1     -18.889 -10.807  -2.737  0.00  0.00    +0.000 C 
ATOM     18  C   UNL     1     -18.616 -11.005  -1.486  0.00  0.00    +0.000 C 
ENDBRANCH  16  18
ENDBRANCH  15  16
ENDBRANCH  12  15
ENDBRANCH  11  12
ENDBRANCH   1  11
TORSDOF 6
ENDMDL
MODEL 3
REMARK VINA RESULT:      -4.7      5.161      6.694
REMARK  Name = 
REMARK  6 active torsions:
REMARK  status: ('A' for Active; 'I' for Inactive)
REMARK    1  A    between atoms: C_2  and  C_3
REMARK    2  A    between atoms: C_3  and  C_4
REMARK    3  A    between atoms: C_4  and  C_5
REMARK    4  A    between atoms: C_5  and  C_6
REMARK    5  A    between atoms: C_5  and  O_8
REMARK    6  A    between atoms: O_8  and  C_9
REMARK                            x       y       z     vdW  Elec       q    Type
REMARK                         _______ _______ _______ _____ _____    ______ ____
ROOT
ATOM      1  C   UNL     1     -10.064  -3.892  -1.122  0.00  0.00    +0.000 A 
ATOM      2  C   UNL     1     -10.502  -5.196  -0.963  0.00  0.00    +0.000 A 
ATOM      3  C   UNL     1      -9.617  -6.178  -0.575  0.00  0.00    +0.000 A 
ATOM      4  C   UNL     1      -8.302  -5.908  -0.341  0.00  0.00    +0.000 A 
ATOM      5  C   UNL     1      -7.848  -4.629  -0.484  0.00  0.00    +0.000 A 
ATOM      6  C   UNL     1      -6.563  -4.268  -0.209  0.00  0.00    +0.000 A 
ATOM      7  N   UNL     1      -6.164  -3.013  -0.312  0.00  0.00    +0.000 NA
ATOM      8  C   UNL     1      -7.022  -1.993  -0.696  0.00  0.00    +0.000 A 
ATOM      9  N   UNL     1      -8.280  -2.385  -0.949  0.00  0.00    +0.000 NA
ATOM     10  C   UNL     1      -8.752  -3.626  -0.869  0.00  0.00    +0.000 A 
ENDROOT
BRANCH   1  11
ATOM     11  O   UNL     1     -10.928  -2.882  -1.539  0.00  0.00    +0.000 OA
BRANCH  11  12
ATOM     12  C   UNL     1     -12.114  -2.775  -0.473  0.00  0.00    +0.000 C 
BRANCH  12  13
ATOM     13  C   UNL     1     -12.074  -1.132  -0.363  0.00  0.00    +0.000 C 
ATOM     14  C   UNL     1     -10.928  -0.764   0.531  0.00  0.00    +0.000 C 
ENDBRANCH  12  13
BRANCH  12  15
ATOM     15  C   UNL     1     -13.227  -2.592  -1.809  0.00  0.00    +0.000 C 
BRANCH  15  16
ATOM     16  C   UNL     1     -14.255  -3.606  -1.273  0.00  0.00    +0.000 C 
BRANCH  16  18
ATOM     17  C   UNL     1     -15.868  -2.032  -0.174  0.00  0.00    +0.000 C 
ATOM     18  C   UNL     1     -15.584  -2.849  -1.139  0.00  0.00    +0.000 C 
ENDBRANCH  16  18
ENDBRANCH  15  16
ENDBRANCH  12  15
ENDBRANCH  11  12
ENDBRANCH   1  11
TORSDOF 6
ENDMDL
MODEL 4
REMARK VINA RESULT:      -4.7      7.800      9.101
REMARK  Name = 
REMARK  6 active torsions:
REMARK  status: ('A' for Active; 'I' for Inactive)
REMARK    1  A    between atoms: C_2  and  C_3
REMARK    2  A    between atoms: C_3  and  C_4
REMARK    3  A    between atoms: C_4  and  C_5
REMARK    4  A    between atoms: C_5  and  C_6
REMARK    5  A    between atoms: C_5  and  O_8
REMARK    6  A    between atoms: O_8  and  C_9
REMARK                            x       y       z     vdW  Elec       q    Type
REMARK                         _______ _______ _______ _____ _____    ______ ____
ROOT
ATOM      1  C   UNL     1     -14.624  -3.576  -1.037  0.00  0.00    +0.000 A 
ATOM      2  C   UNL     1     -14.781  -4.952  -0.993  0.00  0.00    +0.000 A 
ATOM      3  C   UNL     1     -13.713  -5.758  -0.665  0.00  0.00    +0.000 A 
ATOM      4  C   UNL     1     -12.484  -5.241  -0.380  0.00  0.00    +0.000 A 
ATOM      5  C   UNL     1     -12.306  -3.888  -0.410  0.00  0.00    +0.000 A 
ATOM      6  C   UNL     1     -11.127  -3.294  -0.078  0.00  0.00    +0.000 A 
ATOM      7  N   UNL     1     -10.997  -1.979  -0.072  0.00  0.00    +0.000 NA
ATOM      8  C   UNL     1     -12.047  -1.130  -0.392  0.00  0.00    +0.000 A 
ATOM      9  N   UNL     1     -13.194  -1.752  -0.704  0.00  0.00    +0.000 NA
ATOM     10  C   UNL     1     -13.397  -3.066  -0.734  0.00  0.00    +0.000 A 
ENDROOT
BRANCH   1  11
ATOM     11  O   UNL     1     -15.677  -2.736  -1.392  0.00  0.00    +0.000 OA
BRANCH  11  12
ATOM     12  C   UNL     1     -16.787  -2.826  -0.245  0.00  0.00    +0.000 C 
BRANCH  12  13
ATOM     13  C   UNL     1     -16.711  -1.233   0.167  0.00  0.00    +0.000 C 
ATOM     14  C   UNL     1     -15.944  -1.133   1.452  0.00  0.00    +0.000 C 
ENDBRANCH  12  13
BRANCH  12  15
ATOM     15  C   UNL     1     -17.983  -2.389  -1.445  0.00  0.00    +0.000 C 
BRANCH  15  16
ATOM     16  C   UNL     1     -18.957  -3.529  -1.090  0.00  0.00    +0.000 C 
BRANCH  16  18
ATOM     17  C   UNL     1     -21.201  -2.461  -0.761  0.00  0.00    +0.000 C 
ATOM     18  C   UNL     1     -20.351  -3.063  -1.532  0.00  0.00    +0.000 C 
ENDBRANCH  16  18
ENDBRANCH  15  16
ENDBRANCH  12  15
ENDBRANCH  11  12
ENDBRANCH   1  11
TORSDOF 6
ENDMDL
MODEL 5
REMARK VINA RESULT:      -4.5      3.173      4.744
REMARK  Name = 
REMARK  6 active torsions:
REMARK  status: ('A' for Active; 'I' for Inactive)
REMARK    1  A    between atoms: C_2  and  C_3
REMARK    2  A    between atoms: C_3  and  C_4
REMARK    3  A    between atoms: C_4  and  C_5
REMARK    4  A    between atoms: C_5  and  C_6
REMARK    5  A    between atoms: C_5  and  O_8
REMARK    6  A    between atoms: O_8  and  C_9
REMARK                            x       y       z     vdW  Elec       q    Type
REMARK                         _______ _______ _______ _____ _____    ______ ____
ROOT
ATOM      1  C   UNL     1     -13.184  -7.852  -0.190  0.00  0.00    +0.000 A 
ATOM      2  C   UNL     1     -14.466  -7.544  -0.617  0.00  0.00    +0.000 A 
ATOM      3  C   UNL     1     -14.801  -6.242  -0.912  0.00  0.00    +0.000 A 
ATOM      4  C   UNL     1     -13.900  -5.225  -0.796  0.00  0.00    +0.000 A 
ATOM      5  C   UNL     1     -12.629  -5.504  -0.386  0.00  0.00    +0.000 A 
ATOM      6  C   UNL     1     -11.657  -4.553  -0.304  0.00  0.00    +0.000 A 
ATOM      7  N   UNL     1     -10.422  -4.861   0.053  0.00  0.00    +0.000 NA
ATOM      8  C   UNL     1     -10.041  -6.160   0.356  0.00  0.00    +0.000 A 
ATOM      9  N   UNL     1     -11.023  -7.069   0.256  0.00  0.00    +0.000 NA
ATOM     10  C   UNL     1     -12.285  -6.833  -0.094  0.00  0.00    +0.000 A 
ENDROOT
BRANCH   1  11
ATOM     11  O   UNL     1     -12.823  -9.156   0.142  0.00  0.00    +0.000 OA
BRANCH  11  12
ATOM     12  C   UNL     1     -12.654  -9.983  -1.215  0.00  0.00    +0.000 C 
BRANCH  12  13
ATOM     13  C   UNL     1     -11.281 -10.764  -0.749  0.00  0.00    +0.000 C 
ATOM     14  C   UNL     1     -10.189 -10.372  -1.699  0.00  0.00    +0.000 C 
ENDBRANCH  12  13
BRANCH  12  15
ATOM     15  C   UNL     1     -13.564 -11.280  -0.474  0.00  0.00    +0.000 C 
BRANCH  15  16
ATOM     16  C   UNL     1     -14.672 -11.299  -1.544  0.00  0.00    +0.000 C 
BRANCH  16  18
ATOM     17  C   UNL     1     -17.091 -10.652  -1.407  0.00  0.00    +0.000 C 
ATOM     18  C   UNL     1     -15.986 -10.981  -0.816  0.00  0.00    +0.000 C 
ENDBRANCH  16  18
ENDBRANCH  15  16
ENDBRANCH  12  15
ENDBRANCH  11  12
ENDBRANCH   1  11
TORSDOF 6
ENDMDL
