MODEL 1
REMARK VINA RESULT:      -4.8      0.000      0.000
REMARK  Name = 
REMARK  6 active torsions:
REMARK  status: ('A' for Active; 'I' for Inactive)
REMARK    1  A    between atoms: C_2  and  O_3
REMARK    2  A    between atoms: O_3  and  C_4
REMARK    3  A    between atoms: C_4  and  C_6
REMARK    4  A    between atoms: C_6  and  C_7
REMARK    5  A    between atoms: N_9  and  C_10
REMARK    6  A    between atoms: C_10  and  C_11
REMARK                            x       y       z     vdW  Elec       q    Type
REMARK                         _______ _______ _______ _____ _____    ______ ____
ROOT
ATOM      1  C   UNL     1     -12.109  -2.370  -0.859  0.00  0.00    +0.000 C 
ATOM      2  O   UNL     1     -11.900  -1.209  -0.496  0.00  0.00    +0.000 OA
ATOM      3  N   UNL     1     -11.245  -3.114  -1.558  0.00  0.00    +0.000 NA
ENDROOT
BRANCH   1   4
ATOM      4  C   UNL     1     -13.490  -2.868  -0.513  0.00  0.00    +0.000 C 
ATOM      5  C   UNL     1     -14.342  -3.222  -1.629  0.00  0.00    +0.000 C 
ATOM      6  C   UNL     1     -14.649  -4.631  -1.011  0.00  0.00    +0.000 C 
ATOM      7  C   UNL     1     -13.358  -4.431  -0.267  0.00  0.00    +0.000 C 
BRANCH   4   8
ATOM      8  C   UNL     1     -14.163  -2.222   0.649  0.00  0.00    +0.000 C 
ATOM      9  O   UNL     1     -14.057  -2.392   1.740  0.00  0.00    +0.000 OA
BRANCH   8  10
ATOM     10  O   UNL     1     -15.011  -1.094   0.197  0.00  0.00    +0.000 OA
BRANCH  10  12
ATOM     11  C   UNL     1     -17.385  -1.154  -0.474  0.00  0.00    +0.000 C 
ATOM     12  C   UNL     1     -16.385  -1.018   0.509  0.00  0.00    +0.000 C 
ENDBRANCH  10  12
ENDBRANCH   8  10
ENDBRANCH   4   8
ENDBRANCH   1   4
BRANCH   3  13
ATOM     13  C   UNL     1     -10.024  -3.009  -2.061  0.00  0.00    +0.000 C 
BRANCH  13  14
ATOM     14  C   UNL     1      -8.793  -2.840  -1.203  0.00  0.00    +0.000 A 
ATOM     15  C   UNL     1      -8.143  -1.793  -0.943  0.00  0.00    +0.000 A 
ATOM     16  C   UNL     1      -7.202  -1.725  -0.046  0.00  0.00    +0.000 A 
ATOM     17 CL   UNL     1      -6.091  -0.549   0.482  0.00  0.00    +0.000 Cl
ATOM     18  S   UNL     1      -7.163  -3.376   0.498  0.00  0.00    +0.000 S 
ATOM     19  C   UNL     1      -8.376  -4.003  -0.517  0.00  0.00    +0.000 A 
ATOM     20 CL   UNL     1      -9.126  -5.613  -0.758  0.00  0.00    +0.000 Cl
ENDBRANCH  13  14
ENDBRANCH   3  13
TORSDOF 6
ENDMDL
MODEL 2
REMARK VINA RESULT:      -4.8      3.644      6.670
REMARK  Name = 
REMARK  6 active torsions:
REMARK  status: ('A' for Active; 'I' for Inactive)
REMARK    1  A    between atoms: C_2  and  O_3
REMARK    2  A    between atoms: O_3  and  C_4
REMARK    3  A    between atoms: C_4  and  C_6
REMARK    4  A    between atoms: C_6  and  C_7
REMARK    5  A    between atoms: N_9  and  C_10
REMARK    6  A    between atoms: C_10  and  C_11
REMARK                            x       y       z     vdW  Elec       q    Type
REMARK                         _______ _______ _______ _____ _____    ______ ____
ROOT
ATOM      1  C   UNL     1     -10.444  -1.698   0.285  0.00  0.00    +0.000 C 
ATOM      2  O   UNL     1     -10.480  -1.743   1.518  0.00  0.00    +0.000 OA
ATOM      3  N   UNL     1     -11.515  -1.538  -0.500  0.00  0.00    +0.000 NA
ENDROOT
BRANCH   1   4
ATOM      4  C   UNL     1      -9.067  -1.929  -0.285  0.00  0.00    +0.000 C 
ATOM      5  C   UNL     1      -8.192  -0.776  -0.335  0.00  0.00    +0.000 C 
ATOM      6  C   UNL     1      -7.045  -1.554   0.401  0.00  0.00    +0.000 C 
ATOM      7  C   UNL     1      -8.156  -2.423   0.918  0.00  0.00    +0.000 C 
BRANCH   4   8
ATOM      8  C   UNL     1      -8.966  -2.881  -1.427  0.00  0.00    +0.000 C 
ATOM      9  O   UNL     1      -8.816  -2.706  -2.512  0.00  0.00    +0.000 OA
BRANCH   8  10
ATOM     10  O   UNL     1      -8.954  -4.281  -0.938  0.00  0.00    +0.000 OA
BRANCH  10  12
ATOM     11  C   UNL     1      -9.972  -6.519  -1.150  0.00  0.00    +0.000 C 
ATOM     12  C   UNL     1     -10.085  -5.119  -1.038  0.00  0.00    +0.000 C 
ENDBRANCH  10  12
ENDBRANCH   8  10
ENDBRANCH   4   8
ENDBRANCH   1   4
BRANCH   3  13
ATOM     13  C   UNL     1     -12.822  -1.364  -0.374  0.00  0.00    +0.000 C 
BRANCH  13  14
ATOM     14  C   UNL     1     -13.817  -2.492  -0.507  0.00  0.00    +0.000 A 
ATOM     15  C   UNL     1     -13.624  -3.685  -0.859  0.00  0.00    +0.000 A 
ATOM     16  C   UNL     1     -14.521  -4.625  -0.766  0.00  0.00    +0.000 A 
ATOM     17 CL   UNL     1     -14.635  -6.262  -1.218  0.00  0.00    +0.000 Cl
ATOM     18  S   UNL     1     -15.867  -3.719  -0.141  0.00  0.00    +0.000 S 
ATOM     19  C   UNL     1     -15.128  -2.187  -0.077  0.00  0.00    +0.000 A 
ATOM     20 CL   UNL     1     -15.645  -0.548   0.432  0.00  0.00    +0.000 Cl
ENDBRANCH  13  14
ENDBRANCH   3  13
TORSDOF 6
ENDMDL
MODEL 3
REMARK VINA RESULT:      -4.7      2.965      4.443
REMARK  Name = 
REMARK  6 active torsions:
REMARK  status: ('A' for Active; 'I' for Inactive)
REMARK    1  A    between atoms: C_2  and  O_3
REMARK    2  A    between atoms: O_3  and  C_4
REMARK    3  A    between atoms: C_4  and  C_6
REMARK    4  A    between atoms: C_6  and  C_7
REMARK    5  A    between atoms: N_9  and  C_10
REMARK    6  A    between atoms: C_10  and  C_11
REMARK                            x       y       z     vdW  Elec       q    Type
REMARK                         _______ _______ _______ _____ _____    ______ ____
ROOT
ATOM      1  C   UNL     1      -9.750  -2.692  -1.483  0.00  0.00    +0.000 C 
ATOM      2  O   UNL     1     -10.066  -3.047  -2.622  0.00  0.00    +0.000 OA
ATOM      3  N   UNL     1      -8.495  -2.470  -1.078  0.00  0.00    +0.000 NA
ENDROOT
BRANCH   1   4
ATOM      4  C   UNL     1     -10.919  -2.607  -0.534  0.00  0.00    +0.000 C 
ATOM      5  C   UNL     1     -11.174  -1.308   0.054  0.00  0.00    +0.000 C 
ATOM      6  C   UNL     1     -12.680  -1.351  -0.385  0.00  0.00    +0.000 C 
ATOM      7  C   UNL     1     -12.205  -2.328  -1.423  0.00  0.00    +0.000 C 
BRANCH   4   8
ATOM      8  C   UNL     1     -11.153  -3.785   0.347  0.00  0.00    +0.000 C 
ATOM      9  O   UNL     1     -11.020  -3.917   1.440  0.00  0.00    +0.000 OA
BRANCH   8  10
ATOM     10  O   UNL     1     -11.781  -4.890  -0.417  0.00  0.00    +0.000 OA
BRANCH  10  12
ATOM     11  C   UNL     1      -9.949  -6.345  -1.204  0.00  0.00    +0.000 C 
ATOM     12  C   UNL     1     -11.175  -6.158  -0.534  0.00  0.00    +0.000 C 
ENDBRANCH  10  12
ENDBRANCH   8  10
ENDBRANCH   4   8
ENDBRANCH   1   4
BRANCH   3  13
ATOM     13  C   UNL     1      -7.270  -2.490  -1.582  0.00  0.00    +0.000 C 
BRANCH  13  14
ATOM     14  C   UNL     1      -6.087  -3.067  -0.842  0.00  0.00    +0.000 A 
ATOM     15  C   UNL     1      -5.519  -4.180  -0.994  0.00  0.00    +0.000 A 
ATOM     16  C   UNL     1      -4.393  -4.507  -0.428  0.00  0.00    +0.000 A 
ATOM     17 CL   UNL     1      -3.425  -5.903  -0.335  0.00  0.00    +0.000 Cl
ATOM     18  S   UNL     1      -4.083  -3.076   0.509  0.00  0.00    +0.000 S 
ATOM     19  C   UNL     1      -5.471  -2.190   0.079  0.00  0.00    +0.000 A 
ATOM     20 CL   UNL     1      -6.122  -0.571   0.488  0.00  0.00    +0.000 Cl
ENDBRANCH  13  14
ENDBRANCH   3  13
TORSDOF 6
ENDMDL
MODEL 4
REMARK VINA RESULT:      -4.7      3.806      7.497
REMARK  Name = 
REMARK  6 active torsions:
REMARK  status: ('A' for Active; 'I' for Inactive)
REMARK    1  A    between atoms: C_2  and  O_3
REMARK    2  A    between atoms: O_3  and  C_4
REMARK    3  A    between atoms: C_4  and  C_6
REMARK    4  A    between atoms: C_6  and  C_7
REMARK    5  A    between atoms: N_9  and  C_10
REMARK    6  A    between atoms: C_10  and  C_11
REMARK                            x       y       z     vdW  Elec       q    Type
REMARK                         _______ _______ _______ _____ _____    ______ ____
ROOT
ATOM      1  C   UNL     1      -8.133  -2.521  -1.541  0.00  0.00    +0.000 C 
ATOM      2  O   UNL     1      -7.804  -2.135  -2.666  0.00  0.00    +0.000 OA
ATOM      3  N   UNL     1      -9.382  -2.846  -1.186  0.00  0.00    +0.000 NA
ENDROOT
BRANCH   1   4
ATOM      4  C   UNL     1      -6.999  -2.519  -0.547  0.00  0.00    +0.000 C 
ATOM      5  C   UNL     1      -6.702  -1.249   0.084  0.00  0.00    +0.000 C 
ATOM      6  C   UNL     1      -6.773  -1.889   1.515  0.00  0.00    +0.000 C 
ATOM      7  C   UNL     1      -7.622  -2.937   0.852  0.00  0.00    +0.000 C 
BRANCH   4   8
ATOM      8  C   UNL     1      -5.829  -3.385  -0.865  0.00  0.00    +0.000 C 
ATOM      9  O   UNL     1      -5.684  -4.481  -0.767  0.00  0.00    +0.000 OA
BRANCH   8  10
ATOM     10  O   UNL     1      -4.764  -2.597  -1.530  0.00  0.00    +0.000 OA
BRANCH  10  12
ATOM     11  C   UNL     1      -2.999  -1.291  -0.403  0.00  0.00    +0.000 C 
ATOM     12  C   UNL     1      -3.466  -2.485  -0.989  0.00  0.00    +0.000 C 
ENDBRANCH  10  12
ENDBRANCH   8  10
ENDBRANCH   4   8
ENDBRANCH   1   4
BRANCH   3  13
ATOM     13  C   UNL     1     -10.584  -2.919  -1.737  0.00  0.00    +0.000 C 
BRANCH  13  14
ATOM     14  C   UNL     1     -11.861  -2.893  -0.931  0.00  0.00    +0.000 A 
ATOM     15  C   UNL     1     -12.655  -1.937  -0.731  0.00  0.00    +0.000 A 
ATOM     16  C   UNL     1     -13.822  -2.065  -0.169  0.00  0.00    +0.000 A 
ATOM     17 CL   UNL     1     -15.068  -1.018   0.329  0.00  0.00    +0.000 Cl
ATOM     18  S   UNL     1     -13.814  -3.766   0.191  0.00  0.00    +0.000 S 
ATOM     19  C   UNL     1     -12.270  -4.143  -0.416  0.00  0.00    +0.000 A 
ATOM     20 CL   UNL     1     -11.285  -5.635  -0.545  0.00  0.00    +0.000 Cl
ENDBRANCH  13  14
ENDBRANCH   3  13
TORSDOF 6
ENDMDL
MODEL 5
REMARK VINA RESULT:      -4.7      5.600      8.011
REMARK  Name = 
REMARK  6 active torsions:
REMARK  status: ('A' for Active; 'I' for Inactive)
REMARK    1  A    between atoms: C_2  and  O_3
REMARK    2  A    between atoms: O_3  and  C_4
REMARK    3  A    between atoms: C_4  and  C_6
REMARK    4  A    between atoms: C_6  and  C_7
REMARK    5  A    between atoms: N_9  and  C_10
REMARK    6  A    between atoms: C_10  and  C_11
REMARK                            x       y       z     vdW  Elec       q    Type
REMARK                         _______ _______ _______ _____ _____    ______ ____
ROOT
ATOM      1  C   UNL     1      -5.720  -7.134  -0.646  0.00  0.00    +0.000 C 
ATOM      2  O   UNL     1      -4.996  -6.681  -1.537  0.00  0.00    +0.000 OA
ATOM      3  N   UNL     1      -6.385  -6.388   0.243  0.00  0.00    +0.000 NA
ENDROOT
BRANCH   1   4
ATOM      4  C   UNL     1      -5.730  -8.641  -0.587  0.00  0.00    +0.000 C 
ATOM      5  C   UNL     1      -5.325  -9.333  -1.793  0.00  0.00    +0.000 C 
ATOM      6  C   UNL     1      -4.280 -10.198  -1.004  0.00  0.00    +0.000 C 
ATOM      7  C   UNL     1      -4.322  -9.080   0.000  0.00  0.00    +0.000 C 
BRANCH   4   8
ATOM      8  C   UNL     1      -6.830  -9.273   0.196  0.00  0.00    +0.000 C 
ATOM      9  O   UNL     1      -6.916  -9.505   1.277  0.00  0.00    +0.000 OA
BRANCH   8  10
ATOM     10  O   UNL     1      -8.019  -9.490  -0.661  0.00  0.00    +0.000 OA
BRANCH  10  12
ATOM     11  C   UNL     1      -9.676  -7.664  -0.777  0.00  0.00    +0.000 C 
ATOM     12  C   UNL     1      -9.281  -8.946  -0.343  0.00  0.00    +0.000 C 
ENDBRANCH  10  12
ENDBRANCH   8  10
ENDBRANCH   4   8
ENDBRANCH   1   4
BRANCH   3  13
ATOM     13  C   UNL     1      -6.571  -5.108   0.524  0.00  0.00    +0.000 C 
BRANCH  13  14
ATOM     14  C   UNL     1      -7.386  -4.184  -0.352  0.00  0.00    +0.000 A 
ATOM     15  C   UNL     1      -8.635  -4.121  -0.496  0.00  0.00    +0.000 A 
ATOM     16  C   UNL     1      -9.246  -3.169  -1.139  0.00  0.00    +0.000 A 
ATOM     17 CL   UNL     1     -10.850  -2.829  -1.597  0.00  0.00    +0.000 Cl
ATOM     18  S   UNL     1      -7.888  -2.229  -1.680  0.00  0.00    +0.000 S 
ATOM     19  C   UNL     1      -6.644  -3.186  -1.023  0.00  0.00    +0.000 A 
ATOM     20 CL   UNL     1      -4.854  -3.101  -0.996  0.00  0.00    +0.000 Cl
ENDBRANCH  13  14
ENDBRANCH   3  13
TORSDOF 6
ENDMDL
