MODEL 1
REMARK VINA RESULT:      -5.3      0.000      0.000
REMARK  Name = 
REMARK  4 active torsions:
REMARK  status: ('A' for Active; 'I' for Inactive)
REMARK    1  A    between atoms: C_2  and  C_4
REMARK    2  A    between atoms: C_4  and  N_5
REMARK    3  A    between atoms: N_5  and  S_7
REMARK    4  A    between atoms: S_7  and  C_10
REMARK                            x       y       z     vdW  Elec       q    Type
REMARK                         _______ _______ _______ _____ _____    ______ ____
ROOT
ATOM      1  C   UNL     1      -9.727  -2.310  -0.376  0.00  0.00    +0.000 A 
ATOM      2  C   UNL     1     -10.716  -1.411   0.055  0.00  0.00    +0.000 A 
ATOM      3  C   UNL     1     -12.020  -1.806   0.349  0.00  0.00    +0.000 A 
ATOM      4  C   UNL     1     -12.404  -3.141   0.225  0.00  0.00    +0.000 A 
ATOM      5  C   UNL     1     -11.413  -3.988  -0.197  0.00  0.00    +0.000 A 
ATOM      6  C   UNL     1     -11.907  -5.268  -0.281  0.00  0.00    +0.000 A 
ATOM      7  C   UNL     1     -11.016  -6.263  -0.702  0.00  0.00    +0.000 A 
ATOM      8  C   UNL     1      -9.713  -5.932  -1.007  0.00  0.00    +0.000 A 
ATOM      9  C   UNL     1      -9.302  -4.641  -0.898  0.00  0.00    +0.000 A 
ATOM     10  C   UNL     1     -10.126  -3.623  -0.492  0.00  0.00    +0.000 A 
ATOM     11  C   UNL     1     -13.311  -5.251   0.113  0.00  0.00    +0.000 C 
ATOM     12  O   UNL     1     -14.043  -6.256   0.143  0.00  0.00    +0.000 OA
ATOM     13  N   UNL     1     -13.604  -3.883   0.431  0.00  0.00    +0.000 N 
ATOM     14  C   UNL     1     -14.861  -3.380   0.868  0.00  0.00    +0.000 C 
ENDROOT
BRANCH   1  15
ATOM     15  S   UNL     1      -8.107  -1.850  -0.747  0.00  0.00    +0.000 S 
ATOM     16  O   UNL     1      -7.941  -0.348  -0.624  0.00  0.00    +0.000 OA
ATOM     17  O   UNL     1      -7.786  -2.176  -2.190  0.00  0.00    +0.000 OA
BRANCH  15  18
ATOM     18  N   UNL     1      -6.921  -2.581   0.226  0.00  0.00    +0.000 NA
ATOM     19  C   UNL     1      -7.276  -2.696   1.617  0.00  0.00    +0.000 C 
BRANCH  18  20
ATOM     20  C   UNL     1      -5.723  -1.773   0.178  0.00  0.00    +0.000 C 
BRANCH  20  22
ATOM     21  C   UNL     1      -3.349  -1.797  -0.022  0.00  0.00    +0.000 C 
ATOM     22  C   UNL     1      -4.540  -2.889   0.249  0.00  0.00    +0.000 C 
ATOM     23  N   UNL     1      -4.661  -3.255  -1.284  0.00  0.00    +0.000 NA
ENDBRANCH  20  22
ENDBRANCH  18  20
ENDBRANCH  15  18
ENDBRANCH   1  15
TORSDOF 4
ENDMDL
MODEL 2
REMARK VINA RESULT:      -5.3      3.114      4.610
REMARK  Name = 
REMARK  4 active torsions:
REMARK  status: ('A' for Active; 'I' for Inactive)
REMARK    1  A    between atoms: C_2  and  C_4
REMARK    2  A    between atoms: C_4  and  N_5
REMARK    3  A    between atoms: N_5  and  S_7
REMARK    4  A    between atoms: S_7  and  C_10
REMARK                            x       y       z     vdW  Elec       q    Type
REMARK                         _______ _______ _______ _____ _____    ______ ____
ROOT
ATOM      1  C   UNL     1     -14.386  -2.369  -0.285  0.00  0.00    +0.000 A 
ATOM      2  C   UNL     1     -15.384  -1.522   0.224  0.00  0.00    +0.000 A 
ATOM      3  C   UNL     1     -16.644  -1.983   0.604  0.00  0.00    +0.000 A 
ATOM      4  C   UNL     1     -16.971  -3.334   0.492  0.00  0.00    +0.000 A 
ATOM      5  C   UNL     1     -15.972  -4.128  -0.007  0.00  0.00    +0.000 A 
ATOM      6  C   UNL     1     -16.409  -5.430  -0.071  0.00  0.00    +0.000 A 
ATOM      7  C   UNL     1     -15.503  -6.377  -0.564  0.00  0.00    +0.000 A 
ATOM      8  C   UNL     1     -14.242  -5.981  -0.955  0.00  0.00    +0.000 A 
ATOM      9  C   UNL     1     -13.887  -4.672  -0.860  0.00  0.00    +0.000 A 
ATOM     10  C   UNL     1     -14.729  -3.698  -0.387  0.00  0.00    +0.000 A 
ATOM     11  C   UNL     1     -17.781  -5.484   0.420  0.00  0.00    +0.000 C 
ATOM     12  O   UNL     1     -18.461  -6.524   0.490  0.00  0.00    +0.000 OA
ATOM     13  N   UNL     1     -18.116  -4.135   0.773  0.00  0.00    +0.000 N 
ATOM     14  C   UNL     1     -19.363  -3.697   1.301  0.00  0.00    +0.000 C 
ENDROOT
BRANCH   1  15
ATOM     15  S   UNL     1     -12.820  -1.828  -0.763  0.00  0.00    +0.000 S 
ATOM     16  O   UNL     1     -12.735  -0.316  -0.685  0.00  0.00    +0.000 OA
ATOM     17  O   UNL     1     -12.565  -2.173  -2.214  0.00  0.00    +0.000 OA
BRANCH  15  18
ATOM     18  N   UNL     1     -11.539  -2.463   0.154  0.00  0.00    +0.000 NA
ATOM     19  C   UNL     1     -11.827  -2.620   1.557  0.00  0.00    +0.000 C 
BRANCH  18  20
ATOM     20  C   UNL     1     -10.416  -1.556   0.069  0.00  0.00    +0.000 C 
BRANCH  20  22
ATOM     21  C   UNL     1      -8.063  -1.389  -0.270  0.00  0.00    +0.000 C 
ATOM     22  C   UNL     1      -9.141  -2.569   0.092  0.00  0.00    +0.000 C 
ATOM     23  N   UNL     1      -9.318  -2.981  -1.424  0.00  0.00    +0.000 NA
ENDBRANCH  20  22
ENDBRANCH  18  20
ENDBRANCH  15  18
ENDBRANCH   1  15
TORSDOF 4
ENDMDL
MODEL 3
REMARK VINA RESULT:      -5.1      2.357      6.578
REMARK  Name = 
REMARK  4 active torsions:
REMARK  status: ('A' for Active; 'I' for Inactive)
REMARK    1  A    between atoms: C_2  and  C_4
REMARK    2  A    between atoms: C_4  and  N_5
REMARK    3  A    between atoms: N_5  and  S_7
REMARK    4  A    between atoms: S_7  and  C_10
REMARK                            x       y       z     vdW  Elec       q    Type
REMARK                         _______ _______ _______ _____ _____    ______ ____
ROOT
ATOM      1  C   UNL     1      -9.451  -2.342  -0.149  0.00  0.00    +0.000 A 
ATOM      2  C   UNL     1      -8.534  -1.295  -0.331  0.00  0.00    +0.000 A 
ATOM      3  C   UNL     1      -7.177  -1.511  -0.566  0.00  0.00    +0.000 A 
ATOM      4  C   UNL     1      -6.664  -2.806  -0.631  0.00  0.00    +0.000 A 
ATOM      5  C   UNL     1      -7.589  -3.801  -0.450  0.00  0.00    +0.000 A 
ATOM      6  C   UNL     1      -6.970  -5.025  -0.534  0.00  0.00    +0.000 A 
ATOM      7  C   UNL     1      -7.779  -6.156  -0.370  0.00  0.00    +0.000 A 
ATOM      8  C   UNL     1      -9.129  -6.004  -0.135  0.00  0.00    +0.000 A 
ATOM      9  C   UNL     1      -9.665  -4.757  -0.065  0.00  0.00    +0.000 A 
ATOM     10  C   UNL     1      -8.925  -3.612  -0.217  0.00  0.00    +0.000 A 
ATOM     11  C   UNL     1      -5.550  -4.811  -0.789  0.00  0.00    +0.000 C 
ATOM     12  O   UNL     1      -4.715  -5.724  -0.919  0.00  0.00    +0.000 OA
ATOM     13  N   UNL     1      -5.380  -3.388  -0.846  0.00  0.00    +0.000 N 
ATOM     14  C   UNL     1      -4.154  -2.704  -1.075  0.00  0.00    +0.000 C 
ENDROOT
BRANCH   1  15
ATOM     15  S   UNL     1     -11.134  -2.104   0.142  0.00  0.00    +0.000 S 
ATOM     16  O   UNL     1     -11.486  -0.633   0.047  0.00  0.00    +0.000 OA
ATOM     17  O   UNL     1     -11.485  -2.512   1.557  0.00  0.00    +0.000 OA
BRANCH  15  18
ATOM     18  N   UNL     1     -12.164  -2.950  -0.912  0.00  0.00    +0.000 NA
ATOM     19  C   UNL     1     -12.514  -2.232  -2.110  0.00  0.00    +0.000 C 
BRANCH  18  20
ATOM     20  C   UNL     1     -13.406  -3.223  -0.224  0.00  0.00    +0.000 C 
BRANCH  20  22
ATOM     21  C   UNL     1     -15.761  -3.187  -0.585  0.00  0.00    +0.000 C 
ATOM     22  C   UNL     1     -14.422  -3.565  -1.449  0.00  0.00    +0.000 C 
ATOM     23  N   UNL     1     -14.514  -5.098  -1.072  0.00  0.00    +0.000 NA
ENDBRANCH  20  22
ENDBRANCH  18  20
ENDBRANCH  15  18
ENDBRANCH   1  15
TORSDOF 4
ENDMDL
MODEL 4
REMARK VINA RESULT:      -5.0      4.094      7.685
REMARK  Name = 
REMARK  4 active torsions:
REMARK  status: ('A' for Active; 'I' for Inactive)
REMARK    1  A    between atoms: C_2  and  C_4
REMARK    2  A    between atoms: C_4  and  N_5
REMARK    3  A    between atoms: N_5  and  S_7
REMARK    4  A    between atoms: S_7  and  C_10
REMARK                            x       y       z     vdW  Elec       q    Type
REMARK                         _______ _______ _______ _____ _____    ______ ____
ROOT
ATOM      1  C   UNL     1     -12.309  -7.759  -0.208  0.00  0.00    +0.000 A 
ATOM      2  C   UNL     1     -13.577  -7.159  -0.133  0.00  0.00    +0.000 A 
ATOM      3  C   UNL     1     -13.765  -5.780  -0.216  0.00  0.00    +0.000 A 
ATOM      4  C   UNL     1     -12.679  -4.922  -0.381  0.00  0.00    +0.000 A 
ATOM      5  C   UNL     1     -11.459  -5.544  -0.451  0.00  0.00    +0.000 A 
ATOM      6  C   UNL     1     -10.472  -4.602  -0.612  0.00  0.00    +0.000 A 
ATOM      7  C   UNL     1      -9.156  -5.075  -0.700  0.00  0.00    +0.000 A 
ATOM      8  C   UNL     1      -8.908  -6.429  -0.624  0.00  0.00    +0.000 A 
ATOM      9  C   UNL     1      -9.942  -7.296  -0.464  0.00  0.00    +0.000 A 
ATOM     10  C   UNL     1     -11.250  -6.895  -0.371  0.00  0.00    +0.000 A 
ATOM     11  C   UNL     1     -11.089  -3.282  -0.650  0.00  0.00    +0.000 C 
ATOM     12  O   UNL     1     -10.461  -2.217  -0.788  0.00  0.00    +0.000 OA
ATOM     13  N   UNL     1     -12.497  -3.513  -0.502  0.00  0.00    +0.000 N 
ATOM     14  C   UNL     1     -13.508  -2.511  -0.480  0.00  0.00    +0.000 C 
ENDROOT
BRANCH   1  15
ATOM     15  S   UNL     1     -12.046  -9.461  -0.108  0.00  0.00    +0.000 S 
ATOM     16  O   UNL     1     -11.196  -9.795   1.101  0.00  0.00    +0.000 OA
ATOM     17  O   UNL     1     -11.253  -9.940  -1.305  0.00  0.00    +0.000 OA
BRANCH  15  18
ATOM     18  N   UNL     1     -13.463 -10.394  -0.017  0.00  0.00    +0.000 NA
ATOM     19  C   UNL     1     -13.395 -11.497   0.907  0.00  0.00    +0.000 C 
BRANCH  18  20
ATOM     20  C   UNL     1     -13.721 -10.970  -1.318  0.00  0.00    +0.000 C 
BRANCH  20  22
ATOM     21  C   UNL     1     -16.082 -10.771  -1.572  0.00  0.00    +0.000 C 
ATOM     22  C   UNL     1     -14.755  -9.901  -1.980  0.00  0.00    +0.000 C 
ATOM     23  N   UNL     1     -14.668 -10.559  -3.415  0.00  0.00    +0.000 NA
ENDBRANCH  20  22
ENDBRANCH  18  20
ENDBRANCH  15  18
ENDBRANCH   1  15
TORSDOF 4
ENDMDL
MODEL 5
REMARK VINA RESULT:      -5.0      2.672      3.743
REMARK  Name = 
REMARK  4 active torsions:
REMARK  status: ('A' for Active; 'I' for Inactive)
REMARK    1  A    between atoms: C_2  and  C_4
REMARK    2  A    between atoms: C_4  and  N_5
REMARK    3  A    between atoms: N_5  and  S_7
REMARK    4  A    between atoms: S_7  and  C_10
REMARK                            x       y       z     vdW  Elec       q    Type
REMARK                         _______ _______ _______ _____ _____    ______ ____
ROOT
ATOM      1  C   UNL     1     -11.431  -4.820  -0.527  0.00  0.00    +0.000 A 
ATOM      2  C   UNL     1     -12.790  -5.163  -0.446  0.00  0.00    +0.000 A 
ATOM      3  C   UNL     1     -13.230  -6.479  -0.304  0.00  0.00    +0.000 A 
ATOM      4  C   UNL     1     -12.317  -7.531  -0.235  0.00  0.00    +0.000 A 
ATOM      5  C   UNL     1     -11.001  -7.156  -0.316  0.00  0.00    +0.000 A 
ATOM      6  C   UNL     1     -10.201  -8.271  -0.238  0.00  0.00    +0.000 A 
ATOM      7  C   UNL     1      -8.817  -8.062  -0.306  0.00  0.00    +0.000 A 
ATOM      8  C   UNL     1      -8.323  -6.782  -0.447  0.00  0.00    +0.000 A 
ATOM      9  C   UNL     1      -9.183  -5.732  -0.517  0.00  0.00    +0.000 A 
ATOM     10  C   UNL     1     -10.546  -5.872  -0.457  0.00  0.00    +0.000 A 
ATOM     11  C   UNL     1     -11.052  -9.446  -0.095  0.00  0.00    +0.000 C 
ATOM     12  O   UNL     1     -10.630 -10.612   0.003  0.00  0.00    +0.000 OA
ATOM     13  N   UNL     1     -12.397  -8.947  -0.095  0.00  0.00    +0.000 N 
ATOM     14  C   UNL     1     -13.578  -9.733   0.021  0.00  0.00    +0.000 C 
ENDROOT
BRANCH   1  15
ATOM     15  S   UNL     1     -10.858  -3.203  -0.702  0.00  0.00    +0.000 S 
ATOM     16  O   UNL     1     -12.010  -2.221  -0.618  0.00  0.00    +0.000 OA
ATOM     17  O   UNL     1     -10.258  -3.004  -2.077  0.00  0.00    +0.000 OA
BRANCH  15  18
ATOM     18  N   UNL     1      -9.696  -2.733   0.444  0.00  0.00    +0.000 NA
ATOM     19  C   UNL     1     -10.233  -2.076   1.608  0.00  0.00    +0.000 C 
BRANCH  18  20
ATOM     20  C   UNL     1      -8.792  -1.788  -0.175  0.00  0.00    +0.000 C 
BRANCH  20  22
ATOM     21  C   UNL     1      -6.598  -0.997   0.308  0.00  0.00    +0.000 C 
ATOM     22  C   UNL     1      -7.333  -2.448   0.119  0.00  0.00    +0.000 C 
ATOM     23  N   UNL     1      -6.954  -2.530  -1.414  0.00  0.00    +0.000 NA
ENDBRANCH  20  22
ENDBRANCH  18  20
ENDBRANCH  15  18
ENDBRANCH   1  15
TORSDOF 4
ENDMDL
