MODEL 1
REMARK VINA RESULT:      -5.4      0.000      0.000
REMARK  Name = 
REMARK  8 active torsions:
REMARK  status: ('A' for Active; 'I' for Inactive)
REMARK    1  A    between atoms: C_2  and  C_3
REMARK    2  A    between atoms: C_2  and  N_17
REMARK    3  A    between atoms: C_3  and  N_4
REMARK    4  A    between atoms: C_5  and  C_7
REMARK    5  A    between atoms: C_7  and  C_9
REMARK    6  A    between atoms: C_9  and  C_10
REMARK    7  A    between atoms: C_18  and  O_20
REMARK    8  A    between atoms: O_20  and  C_21
REMARK                            x       y       z     vdW  Elec       q    Type
REMARK                         _______ _______ _______ _____ _____    ______ ____
ROOT
ATOM      1  N   UNL     1      -8.324  -4.713  -0.067  0.00  0.00    +0.000 NA
ATOM      2  C   UNL     1      -7.671  -3.609  -0.613  0.00  0.00    +0.000 C 
ATOM      3  O   UNL     1      -6.463  -3.473  -0.729  0.00  0.00    +0.000 OA
ENDROOT
BRANCH   2   4
ATOM      4  C   UNL     1      -8.635  -2.423  -1.129  0.00  0.00    +0.000 C 
ATOM      5  C   UNL     1      -7.661  -1.188  -0.669  0.00  0.00    +0.000 C 
BRANCH   4   6
ATOM      6  C   UNL     1      -9.552  -2.359   0.227  0.00  0.00    +0.000 C 
BRANCH   6   7
ATOM      7  C   UNL     1     -10.968  -2.325  -0.232  0.00  0.00    +0.000 A 
ATOM      8  C   UNL     1     -11.595  -3.429  -0.721  0.00  0.00    +0.000 A 
ATOM      9  C   UNL     1     -12.932  -3.277  -1.108  0.00  0.00    +0.000 A 
ATOM     10  C   UNL     1     -13.600  -2.076  -1.007  0.00  0.00    +0.000 A 
ATOM     11  C   UNL     1     -12.912  -0.994  -0.502  0.00  0.00    +0.000 A 
ATOM     12  C   UNL     1     -11.597  -1.076  -0.105  0.00  0.00    +0.000 A 
ATOM     13  F   UNL     1     -10.922  -0.011   0.388  0.00  0.00    +0.000 F 
ENDBRANCH   6   7
ENDBRANCH   4   6
ENDBRANCH   2   4
BRANCH   1  14
ATOM     14  C   UNL     1      -7.808  -5.854   0.427  0.00  0.00    +0.000 C 
BRANCH  14  16
ATOM     15  C   UNL     1      -9.930  -6.733  -0.441  0.00  0.00    +0.000 C 
ATOM     16  C   UNL     1      -8.741  -7.134   0.593  0.00  0.00    +0.000 C 
BRANCH  16  17
ATOM     17  N   UNL     1      -8.001  -8.048  -0.453  0.00  0.00    +0.000 NA
ATOM     18  C   UNL     1      -7.243  -9.117   0.039  0.00  0.00    +0.000 C 
ATOM     19  O   UNL     1      -7.195  -9.286   1.287  0.00  0.00    +0.000 OA
BRANCH  18  20
ATOM     20  O   UNL     1      -6.528 -10.012  -0.747  0.00  0.00    +0.000 OA
BRANCH  20  21
ATOM     21  C   UNL     1      -5.140  -9.807  -0.948  0.00  0.00    +0.000 C 
ATOM     22  C   UNL     1      -4.757 -10.203  -2.354  0.00  0.00    +0.000 C 
ATOM     23  C   UNL     1      -4.389 -10.708   0.014  0.00  0.00    +0.000 C 
ATOM     24  C   UNL     1      -4.752  -8.370  -0.734  0.00  0.00    +0.000 C 
ENDBRANCH  20  21
ENDBRANCH  18  20
ENDBRANCH  16  17
ENDBRANCH  14  16
ENDBRANCH   1  14
TORSDOF 8
ENDMDL
MODEL 2
REMARK VINA RESULT:      -5.3      3.606      5.143
REMARK  Name = 
REMARK  8 active torsions:
REMARK  status: ('A' for Active; 'I' for Inactive)
REMARK    1  A    between atoms: C_2  and  C_3
REMARK    2  A    between atoms: C_2  and  N_17
REMARK    3  A    between atoms: C_3  and  N_4
REMARK    4  A    between atoms: C_5  and  C_7
REMARK    5  A    between atoms: C_7  and  C_9
REMARK    6  A    between atoms: C_9  and  C_10
REMARK    7  A    between atoms: C_18  and  O_20
REMARK    8  A    between atoms: O_20  and  C_21
REMARK                            x       y       z     vdW  Elec       q    Type
REMARK                         _______ _______ _______ _____ _____    ______ ____
ROOT
ATOM      1  N   UNL     1     -11.138  -3.062  -0.814  0.00  0.00    +0.000 NA
ATOM      2  C   UNL     1     -12.043  -2.227  -1.469  0.00  0.00    +0.000 C 
ATOM      3  O   UNL     1     -12.395  -2.322  -2.635  0.00  0.00    +0.000 OA
ENDROOT
BRANCH   2   4
ATOM      4  C   UNL     1     -12.663  -1.041  -0.570  0.00  0.00    +0.000 C 
ATOM      5  C   UNL     1     -11.397  -0.922   0.465  0.00  0.00    +0.000 C 
BRANCH   4   6
ATOM      6  C   UNL     1     -13.528  -2.020   0.417  0.00  0.00    +0.000 C 
BRANCH   6   7
ATOM      7  C   UNL     1     -14.955  -1.837   0.036  0.00  0.00    +0.000 A 
ATOM      8  C   UNL     1     -15.666  -0.738   0.406  0.00  0.00    +0.000 A 
ATOM      9  C   UNL     1     -16.996  -0.671  -0.024  0.00  0.00    +0.000 A 
ATOM     10  C   UNL     1     -17.579  -1.660  -0.786  0.00  0.00    +0.000 A 
ATOM     11  C   UNL     1     -16.808  -2.749  -1.130  0.00  0.00    +0.000 A 
ATOM     12  C   UNL     1     -15.495  -2.876  -0.739  0.00  0.00    +0.000 A 
ATOM     13  F   UNL     1     -14.739  -3.949  -1.077  0.00  0.00    +0.000 F 
ENDBRANCH   6   7
ENDBRANCH   4   6
ENDBRANCH   2   4
BRANCH   1  14
ATOM     14  C   UNL     1     -10.474  -4.136  -1.280  0.00  0.00    +0.000 C 
BRANCH  14  16
ATOM     15  C   UNL     1      -9.857  -6.512  -1.222  0.00  0.00    +0.000 C 
ATOM     16  C   UNL     1      -9.888  -5.205  -0.256  0.00  0.00    +0.000 C 
BRANCH  16  17
ATOM     17  N   UNL     1      -8.365  -4.874  -0.484  0.00  0.00    +0.000 NA
ATOM     18  C   UNL     1      -7.712  -4.114   0.493  0.00  0.00    +0.000 C 
ATOM     19  O   UNL     1      -8.376  -3.739   1.496  0.00  0.00    +0.000 OA
BRANCH  18  20
ATOM     20  O   UNL     1      -6.377  -3.734   0.442  0.00  0.00    +0.000 OA
BRANCH  20  21
ATOM     21  C   UNL     1      -5.999  -2.629  -0.362  0.00  0.00    +0.000 C 
ATOM     22  C   UNL     1      -5.432  -3.115  -1.675  0.00  0.00    +0.000 C 
ATOM     23  C   UNL     1      -4.906  -1.870   0.368  0.00  0.00    +0.000 C 
ATOM     24  C   UNL     1      -7.164  -1.724  -0.650  0.00  0.00    +0.000 C 
ENDBRANCH  20  21
ENDBRANCH  18  20
ENDBRANCH  16  17
ENDBRANCH  14  16
ENDBRANCH   1  14
TORSDOF 8
ENDMDL
MODEL 3
REMARK VINA RESULT:      -5.3      3.339      4.775
REMARK  Name = 
REMARK  8 active torsions:
REMARK  status: ('A' for Active; 'I' for Inactive)
REMARK    1  A    between atoms: C_2  and  C_3
REMARK    2  A    between atoms: C_2  and  N_17
REMARK    3  A    between atoms: C_3  and  N_4
REMARK    4  A    between atoms: C_5  and  C_7
REMARK    5  A    between atoms: C_7  and  C_9
REMARK    6  A    between atoms: C_9  and  C_10
REMARK    7  A    between atoms: C_18  and  O_20
REMARK    8  A    between atoms: O_20  and  C_21
REMARK                            x       y       z     vdW  Elec       q    Type
REMARK                         _______ _______ _______ _____ _____    ______ ____
ROOT
ATOM      1  N   UNL     1      -9.988  -2.503  -1.179  0.00  0.00    +0.000 NA
ATOM      2  C   UNL     1     -11.274  -2.991  -0.951  0.00  0.00    +0.000 C 
ATOM      3  O   UNL     1     -11.568  -4.149  -0.699  0.00  0.00    +0.000 OA
ENDROOT
BRANCH   2   4
ATOM      4  C   UNL     1     -12.453  -1.894  -1.036  0.00  0.00    +0.000 C 
ATOM      5  C   UNL     1     -11.715  -0.767  -0.103  0.00  0.00    +0.000 C 
BRANCH   4   6
ATOM      6  C   UNL     1     -13.335  -2.509   0.200  0.00  0.00    +0.000 C 
BRANCH   6   7
ATOM      7  C   UNL     1     -14.751  -2.144  -0.079  0.00  0.00    +0.000 A 
ATOM      8  C   UNL     1     -15.348  -1.069   0.503  0.00  0.00    +0.000 A 
ATOM      9  C   UNL     1     -16.679  -0.819   0.152  0.00  0.00    +0.000 A 
ATOM     10  C   UNL     1     -17.371  -1.609  -0.739  0.00  0.00    +0.000 A 
ATOM     11  C   UNL     1     -16.713  -2.682  -1.298  0.00  0.00    +0.000 A 
ATOM     12  C   UNL     1     -15.405  -2.985  -0.994  0.00  0.00    +0.000 A 
ATOM     13  F   UNL     1     -14.760  -4.042  -1.543  0.00  0.00    +0.000 F 
ENDBRANCH   6   7
ENDBRANCH   4   6
ENDBRANCH   2   4
BRANCH   1  14
ATOM     14  C   UNL     1      -8.809  -3.154  -1.160  0.00  0.00    +0.000 C 
BRANCH  14  16
ATOM     15  C   UNL     1      -7.635  -1.107  -0.485  0.00  0.00    +0.000 C 
ATOM     16  C   UNL     1      -7.468  -2.366  -1.500  0.00  0.00    +0.000 C 
BRANCH  16  17
ATOM     17  N   UNL     1      -6.525  -3.161  -0.521  0.00  0.00    +0.000 NA
ATOM     18  C   UNL     1      -5.251  -3.508  -0.985  0.00  0.00    +0.000 C 
ATOM     19  O   UNL     1      -4.931  -3.166  -2.154  0.00  0.00    +0.000 OA
BRANCH  18  20
ATOM     20  O   UNL     1      -4.303  -4.209  -0.251  0.00  0.00    +0.000 OA
BRANCH  20  21
ATOM     21  C   UNL     1      -4.421  -5.616  -0.128  0.00  0.00    +0.000 C 
ATOM     22  C   UNL     1      -5.111  -5.966   1.170  0.00  0.00    +0.000 C 
ATOM     23  C   UNL     1      -3.022  -6.203  -0.087  0.00  0.00    +0.000 C 
ATOM     24  C   UNL     1      -5.207  -6.212  -1.262  0.00  0.00    +0.000 C 
ENDBRANCH  20  21
ENDBRANCH  18  20
ENDBRANCH  16  17
ENDBRANCH  14  16
ENDBRANCH   1  14
TORSDOF 8
ENDMDL
MODEL 4
REMARK VINA RESULT:      -5.3      4.292      7.729
REMARK  Name = 
REMARK  8 active torsions:
REMARK  status: ('A' for Active; 'I' for Inactive)
REMARK    1  A    between atoms: C_2  and  C_3
REMARK    2  A    between atoms: C_2  and  N_17
REMARK    3  A    between atoms: C_3  and  N_4
REMARK    4  A    between atoms: C_5  and  C_7
REMARK    5  A    between atoms: C_7  and  C_9
REMARK    6  A    between atoms: C_9  and  C_10
REMARK    7  A    between atoms: C_18  and  O_20
REMARK    8  A    between atoms: O_20  and  C_21
REMARK                            x       y       z     vdW  Elec       q    Type
REMARK                         _______ _______ _______ _____ _____    ______ ____
ROOT
ATOM      1  N   UNL     1      -9.864  -8.093  -0.947  0.00  0.00    +0.000 NA
ATOM      2  C   UNL     1      -9.247  -9.343  -0.945  0.00  0.00    +0.000 C 
ATOM      3  O   UNL     1      -8.096  -9.576  -0.611  0.00  0.00    +0.000 OA
ENDROOT
BRANCH   2   4
ATOM      4  C   UNL     1     -10.174 -10.570  -1.433  0.00  0.00    +0.000 C 
ATOM      5  C   UNL     1     -10.010 -10.290  -3.040  0.00  0.00    +0.000 C 
BRANCH   4   6
ATOM      6  C   UNL     1     -11.592  -9.757  -1.318  0.00  0.00    +0.000 C 
BRANCH   6   7
ATOM      7  C   UNL     1     -12.534 -10.665  -0.608  0.00  0.00    +0.000 A 
ATOM      8  C   UNL     1     -12.290 -11.118   0.651  0.00  0.00    +0.000 A 
ATOM      9  C   UNL     1     -13.256 -11.956   1.220  0.00  0.00    +0.000 A 
ATOM     10  C   UNL     1     -14.406 -12.318   0.554  0.00  0.00    +0.000 A 
ATOM     11  C   UNL     1     -14.598 -11.826  -0.719  0.00  0.00    +0.000 A 
ATOM     12  C   UNL     1     -13.687 -11.000  -1.336  0.00  0.00    +0.000 A 
ATOM     13  F   UNL     1     -13.877 -10.520  -2.588  0.00  0.00    +0.000 F 
ENDBRANCH   6   7
ENDBRANCH   4   6
ENDBRANCH   2   4
BRANCH   1  14
ATOM     14  C   UNL     1      -9.370  -6.894  -0.583  0.00  0.00    +0.000 C 
BRANCH  14  16
ATOM     15  C   UNL     1     -11.358  -5.465  -0.405  0.00  0.00    +0.000 C 
ATOM     16  C   UNL     1      -9.962  -5.567  -1.233  0.00  0.00    +0.000 C 
BRANCH  16  17
ATOM     17  N   UNL     1      -9.214  -4.545  -0.298  0.00  0.00    +0.000 NA
ATOM     18  C   UNL     1      -8.967  -3.263  -0.802  0.00  0.00    +0.000 C 
ATOM     19  O   UNL     1      -9.355  -3.000  -1.971  0.00  0.00    +0.000 OA
BRANCH  18  20
ATOM     20  O   UNL     1      -8.318  -2.249  -0.109  0.00  0.00    +0.000 OA
BRANCH  20  21
ATOM     21  C   UNL     1      -6.913  -2.316   0.067  0.00  0.00    +0.000 C 
ATOM     22  C   UNL     1      -6.583  -3.162   1.273  0.00  0.00    +0.000 C 
ATOM     23  C   UNL     1      -6.405  -0.910   0.327  0.00  0.00    +0.000 C 
ATOM     24  C   UNL     1      -6.228  -2.908  -1.134  0.00  0.00    +0.000 C 
ENDBRANCH  20  21
ENDBRANCH  18  20
ENDBRANCH  16  17
ENDBRANCH  14  16
ENDBRANCH   1  14
TORSDOF 8
ENDMDL
MODEL 5
REMARK VINA RESULT:      -5.3      6.891      9.702
REMARK  Name = 
REMARK  8 active torsions:
REMARK  status: ('A' for Active; 'I' for Inactive)
REMARK    1  A    between atoms: C_2  and  C_3
REMARK    2  A    between atoms: C_2  and  N_17
REMARK    3  A    between atoms: C_3  and  N_4
REMARK    4  A    between atoms: C_5  and  C_7
REMARK    5  A    between atoms: C_7  and  C_9
REMARK    6  A    between atoms: C_9  and  C_10
REMARK    7  A    between atoms: C_18  and  O_20
REMARK    8  A    between atoms: O_20  and  C_21
REMARK                            x       y       z     vdW  Elec       q    Type
REMARK                         _______ _______ _______ _____ _____    ______ ____
ROOT
ATOM      1  N   UNL     1     -13.848  -9.074  -0.592  0.00  0.00    +0.000 NA
ATOM      2  C   UNL     1     -13.509 -10.255  -1.252  0.00  0.00    +0.000 C 
ATOM      3  O   UNL     1     -12.379 -10.678  -1.433  0.00  0.00    +0.000 OA
ENDROOT
BRANCH   2   4
ATOM      4  C   UNL     1     -14.755 -11.114  -1.810  0.00  0.00    +0.000 C 
ATOM      5  C   UNL     1     -14.670 -10.571  -3.354  0.00  0.00    +0.000 C 
BRANCH   4   6
ATOM      6  C   UNL     1     -15.906 -10.035  -1.370  0.00  0.00    +0.000 C 
BRANCH   6   7
ATOM      7  C   UNL     1     -17.005 -10.829  -0.755  0.00  0.00    +0.000 A 
ATOM      8  C   UNL     1     -16.914 -11.333   0.505  0.00  0.00    +0.000 A 
ATOM      9  C   UNL     1     -18.017 -12.052   0.979  0.00  0.00    +0.000 A 
ATOM     10  C   UNL     1     -19.152 -12.250   0.224  0.00  0.00    +0.000 A 
ATOM     11  C   UNL     1     -19.186 -11.714  -1.045  0.00  0.00    +0.000 A 
ATOM     12  C   UNL     1     -18.135 -10.999  -1.572  0.00  0.00    +0.000 A 
ATOM     13  F   UNL     1     -18.169 -10.475  -2.820  0.00  0.00    +0.000 F 
ENDBRANCH   6   7
ENDBRANCH   4   6
ENDBRANCH   2   4
BRANCH   1  14
ATOM     14  C   UNL     1     -13.049  -8.161  -0.007  0.00  0.00    +0.000 C 
BRANCH  14  16
ATOM     15  C   UNL     1     -12.633  -6.696   1.918  0.00  0.00    +0.000 C 
ATOM     16  C   UNL     1     -13.693  -6.889   0.701  0.00  0.00    +0.000 C 
BRANCH  16  17
ATOM     17  N   UNL     1     -13.008  -5.798  -0.204  0.00  0.00    +0.000 NA
ATOM     18  C   UNL     1     -13.657  -4.566  -0.341  0.00  0.00    +0.000 C 
ATOM     19  O   UNL     1     -14.748  -4.399   0.266  0.00  0.00    +0.000 OA
BRANCH  18  20
ATOM     20  O   UNL     1     -13.190  -3.502  -1.102  0.00  0.00    +0.000 OA
BRANCH  20  21
ATOM     21  C   UNL     1     -12.198  -2.645  -0.563  0.00  0.00    +0.000 C 
ATOM     22  C   UNL     1     -12.632  -1.204  -0.696  0.00  0.00    +0.000 C 
ATOM     23  C   UNL     1     -10.929  -2.828  -1.375  0.00  0.00    +0.000 C 
ATOM     24  C   UNL     1     -11.939  -2.934   0.889  0.00  0.00    +0.000 C 
ENDBRANCH  20  21
ENDBRANCH  18  20
ENDBRANCH  16  17
ENDBRANCH  14  16
ENDBRANCH   1  14
TORSDOF 8
ENDMDL
