MODEL 1
REMARK VINA RESULT:      -3.7      0.000      0.000
REMARK  Name = 
REMARK  5 active torsions:
REMARK  status: ('A' for Active; 'I' for Inactive)
REMARK    1  A    between atoms: O_2  and  C_3
REMARK    2  A    between atoms: C_3  and  C_4
REMARK    3  A    between atoms: C_4  and  C_5
REMARK    4  A    between atoms: C_10  and  C_12
REMARK    5  A    between atoms: C_12  and  C_14
REMARK                            x       y       z     vdW  Elec       q    Type
REMARK                         _______ _______ _______ _____ _____    ______ ____
ROOT
ATOM      1  C   UNL     1     -11.699  -2.814  -1.079  0.00  0.00    +0.000 C 
ATOM      2  N   UNL     1     -10.562  -2.931  -2.007  0.00  0.00    +0.000 NA
ATOM      3  C   UNL     1     -12.007  -4.134  -0.548  0.00  0.00    +0.000 C 
ATOM      4  C   UNL     1     -13.421  -4.459  -0.238  0.00  0.00    +0.000 C 
ATOM      5  N   UNL     1     -14.380  -3.559  -0.872  0.00  0.00    +0.000 N 
ATOM      6  C   UNL     1     -15.585  -3.389  -0.220  0.00  0.00    +0.000 C 
ATOM      7  O   UNL     1     -15.897  -3.951   0.862  0.00  0.00    +0.000 OA
ATOM      8  C   UNL     1     -13.940  -2.963  -2.101  0.00  0.00    +0.000 C 
ATOM      9  C   UNL     1     -12.767  -2.066  -1.777  0.00  0.00    +0.000 C 
ENDROOT
BRANCH   6  10
ATOM     10  C   UNL     1     -16.737  -2.434  -0.789  0.00  0.00    +0.000 C 
ATOM     11  N   UNL     1     -17.963  -3.352  -0.398  0.00  0.00    +0.000 NA
BRANCH  10  12
ATOM     12  C   UNL     1     -16.830  -1.539   0.616  0.00  0.00    +0.000 C 
ATOM     13  N   UNL     1     -15.795  -0.517   0.418  0.00  0.00    +0.000 NA
ENDBRANCH  10  12
ENDBRANCH   6  10
BRANCH   1  14
ATOM     14  C   UNL     1     -11.182  -1.929   0.062  0.00  0.00    +0.000 C 
BRANCH  14  15
ATOM     15  C   UNL     1      -9.665  -2.102   0.174  0.00  0.00    +0.000 C 
BRANCH  15  17
ATOM     16  C   UNL     1      -7.764  -1.043  -0.467  0.00  0.00    +0.000 C 
ATOM     17  O   UNL     1      -9.093  -0.853  -0.031  0.00  0.00    +0.000 OA
ENDBRANCH  15  17
ENDBRANCH  14  15
ENDBRANCH   1  14
TORSDOF 5
ENDMDL
MODEL 2
REMARK VINA RESULT:      -3.7      2.582      6.972
REMARK  Name = 
REMARK  5 active torsions:
REMARK  status: ('A' for Active; 'I' for Inactive)
REMARK    1  A    between atoms: O_2  and  C_3
REMARK    2  A    between atoms: C_3  and  C_4
REMARK    3  A    between atoms: C_4  and  C_5
REMARK    4  A    between atoms: C_10  and  C_12
REMARK    5  A    between atoms: C_12  and  C_14
REMARK                            x       y       z     vdW  Elec       q    Type
REMARK                         _______ _______ _______ _____ _____    ______ ____
ROOT
ATOM      1  C   UNL     1     -17.931  -2.266  -0.059  0.00  0.00    +0.000 C 
ATOM      2  N   UNL     1     -19.089  -1.876   0.762  0.00  0.00    +0.000 NA
ATOM      3  C   UNL     1     -17.448  -3.560   0.398  0.00  0.00    +0.000 C 
ATOM      4  C   UNL     1     -15.993  -3.841   0.320  0.00  0.00    +0.000 C 
ATOM      5  N   UNL     1     -15.176  -2.641   0.165  0.00  0.00    +0.000 N 
ATOM      6  C   UNL     1     -13.969  -2.801  -0.487  0.00  0.00    +0.000 C 
ATOM      7  O   UNL     1     -13.544  -3.895  -0.943  0.00  0.00    +0.000 OA
ATOM      8  C   UNL     1     -15.738  -1.440   0.713  0.00  0.00    +0.000 C 
ATOM      9  C   UNL     1     -16.990  -1.124  -0.072  0.00  0.00    +0.000 C 
ENDROOT
BRANCH   6  10
ATOM     10  C   UNL     1     -12.963  -1.581  -0.736  0.00  0.00    +0.000 C 
ATOM     11  N   UNL     1     -12.124  -1.744   0.593  0.00  0.00    +0.000 NA
BRANCH  10  12
ATOM     12  C   UNL     1     -11.904  -2.504  -1.636  0.00  0.00    +0.000 C 
ATOM     13  N   UNL     1     -10.654  -2.397  -0.875  0.00  0.00    +0.000 NA
ENDBRANCH  10  12
ENDBRANCH   6  10
BRANCH   1  14
ATOM     14  C   UNL     1     -18.493  -2.419  -1.479  0.00  0.00    +0.000 C 
BRANCH  14  15
ATOM     15  C   UNL     1     -19.677  -3.390  -1.440  0.00  0.00    +0.000 C 
BRANCH  15  17
ATOM     16  C   UNL     1     -21.762  -2.498  -1.462  0.00  0.00    +0.000 C 
ATOM     17  O   UNL     1     -20.663  -2.868  -2.267  0.00  0.00    +0.000 OA
ENDBRANCH  15  17
ENDBRANCH  14  15
ENDBRANCH   1  14
TORSDOF 5
ENDMDL
MODEL 3
REMARK VINA RESULT:      -3.7      2.766      4.168
REMARK  Name = 
REMARK  5 active torsions:
REMARK  status: ('A' for Active; 'I' for Inactive)
REMARK    1  A    between atoms: O_2  and  C_3
REMARK    2  A    between atoms: C_3  and  C_4
REMARK    3  A    between atoms: C_4  and  C_5
REMARK    4  A    between atoms: C_10  and  C_12
REMARK    5  A    between atoms: C_12  and  C_14
REMARK                            x       y       z     vdW  Elec       q    Type
REMARK                         _______ _______ _______ _____ _____    ______ ____
ROOT
ATOM      1  C   UNL     1      -7.538  -2.778  -0.815  0.00  0.00    +0.000 C 
ATOM      2  N   UNL     1      -6.234  -2.958  -1.475  0.00  0.00    +0.000 NA
ATOM      3  C   UNL     1      -7.953  -4.051  -0.245  0.00  0.00    +0.000 C 
ATOM      4  C   UNL     1      -9.401  -4.370  -0.206  0.00  0.00    +0.000 C 
ATOM      5  N   UNL     1     -10.205  -3.543  -1.101  0.00  0.00    +0.000 N 
ATOM      6  C   UNL     1     -11.519  -3.336  -0.730  0.00  0.00    +0.000 C 
ATOM      7  O   UNL     1     -12.050  -3.807   0.310  0.00  0.00    +0.000 OA
ATOM      8  C   UNL     1      -9.520  -3.049  -2.260  0.00  0.00    +0.000 C 
ATOM      9  C   UNL     1      -8.436  -2.110  -1.782  0.00  0.00    +0.000 C 
ENDROOT
BRANCH   6  10
ATOM     10  C   UNL     1     -12.525  -2.452  -1.606  0.00  0.00    +0.000 C 
ATOM     11  N   UNL     1     -13.807  -3.354  -1.403  0.00  0.00    +0.000 NA
BRANCH  10  12
ATOM     12  C   UNL     1     -12.911  -1.444  -0.333  0.00  0.00    +0.000 C 
ATOM     13  N   UNL     1     -11.800  -0.485  -0.332  0.00  0.00    +0.000 NA
ENDBRANCH  10  12
ENDBRANCH   6  10
BRANCH   1  14
ATOM     14  C   UNL     1      -7.266  -1.789   0.325  0.00  0.00    +0.000 C 
BRANCH  14  15
ATOM     15  C   UNL     1      -5.760  -1.758   0.604  0.00  0.00    +0.000 C 
BRANCH  15  17
ATOM     16  C   UNL     1      -4.674  -3.322   1.836  0.00  0.00    +0.000 C 
ATOM     17  O   UNL     1      -5.572  -2.234   1.895  0.00  0.00    +0.000 OA
ENDBRANCH  15  17
ENDBRANCH  14  15
ENDBRANCH   1  14
TORSDOF 5
ENDMDL
MODEL 4
REMARK VINA RESULT:      -3.7      4.162      7.803
REMARK  Name = 
REMARK  5 active torsions:
REMARK  status: ('A' for Active; 'I' for Inactive)
REMARK    1  A    between atoms: O_2  and  C_3
REMARK    2  A    between atoms: C_3  and  C_4
REMARK    3  A    between atoms: C_4  and  C_5
REMARK    4  A    between atoms: C_10  and  C_12
REMARK    5  A    between atoms: C_12  and  C_14
REMARK                            x       y       z     vdW  Elec       q    Type
REMARK                         _______ _______ _______ _____ _____    ______ ____
ROOT
ATOM      1  C   UNL     1     -10.338  -3.142  -0.730  0.00  0.00    +0.000 C 
ATOM      2  N   UNL     1     -11.550  -2.449  -1.200  0.00  0.00    +0.000 NA
ATOM      3  C   UNL     1      -9.879  -2.503   0.494  0.00  0.00    +0.000 C 
ATOM      4  C   UNL     1      -8.421  -2.452   0.761  0.00  0.00    +0.000 C 
ATOM      5  N   UNL     1      -7.602  -2.696  -0.423  0.00  0.00    +0.000 N 
ATOM      6  C   UNL     1      -6.354  -3.245  -0.202  0.00  0.00    +0.000 C 
ATOM      7  O   UNL     1      -5.893  -3.538   0.932  0.00  0.00    +0.000 OA
ATOM      8  C   UNL     1      -8.206  -2.333  -1.672  0.00  0.00    +0.000 C 
ATOM      9  C   UNL     1      -9.405  -3.230  -1.875  0.00  0.00    +0.000 C 
ENDROOT
BRANCH   6  10
ATOM     10  C   UNL     1      -5.341  -3.572  -1.397  0.00  0.00    +0.000 C 
ATOM     11  N   UNL     1      -4.211  -2.546  -0.984  0.00  0.00    +0.000 NA
BRANCH  10  12
ATOM     12  C   UNL     1      -4.627  -4.840  -0.582  0.00  0.00    +0.000 C 
ATOM     13  N   UNL     1      -5.064  -6.009  -1.354  0.00  0.00    +0.000 NA
ENDBRANCH  10  12
ENDBRANCH   6  10
BRANCH   1  14
ATOM     14  C   UNL     1     -10.805  -4.566  -0.402  0.00  0.00    +0.000 C 
BRANCH  14  15
ATOM     15  C   UNL     1      -9.935  -5.562  -1.174  0.00  0.00    +0.000 C 
BRANCH  15  17
ATOM     16  C   UNL     1      -8.337  -6.313   0.250  0.00  0.00    +0.000 C 
ATOM     17  O   UNL     1      -9.610  -6.588  -0.297  0.00  0.00    +0.000 OA
ENDBRANCH  15  17
ENDBRANCH  14  15
ENDBRANCH   1  14
TORSDOF 5
ENDMDL
MODEL 5
REMARK VINA RESULT:      -3.7      2.065      5.747
REMARK  Name = 
REMARK  5 active torsions:
REMARK  status: ('A' for Active; 'I' for Inactive)
REMARK    1  A    between atoms: O_2  and  C_3
REMARK    2  A    between atoms: C_3  and  C_4
REMARK    3  A    between atoms: C_4  and  C_5
REMARK    4  A    between atoms: C_10  and  C_12
REMARK    5  A    between atoms: C_12  and  C_14
REMARK                            x       y       z     vdW  Elec       q    Type
REMARK                         _______ _______ _______ _____ _____    ______ ____
ROOT
ATOM      1  C   UNL     1     -15.053  -3.134  -0.681  0.00  0.00    +0.000 C 
ATOM      2  N   UNL     1     -16.290  -2.467  -1.120  0.00  0.00    +0.000 NA
ATOM      3  C   UNL     1     -14.568  -2.475   0.522  0.00  0.00    +0.000 C 
ATOM      4  C   UNL     1     -13.103  -2.397   0.744  0.00  0.00    +0.000 C 
ATOM      5  N   UNL     1     -12.316  -2.641  -0.462  0.00  0.00    +0.000 N 
ATOM      6  C   UNL     1     -11.054  -3.166  -0.274  0.00  0.00    +0.000 C 
ATOM      7  O   UNL     1     -10.553  -3.440   0.848  0.00  0.00    +0.000 OA
ATOM      8  C   UNL     1     -12.964  -2.301  -1.696  0.00  0.00    +0.000 C 
ATOM      9  C   UNL     1     -14.154  -3.219  -1.853  0.00  0.00    +0.000 C 
ENDROOT
BRANCH   6  10
ATOM     10  C   UNL     1     -10.072  -3.490  -1.496  0.00  0.00    +0.000 C 
ATOM     11  N   UNL     1      -8.937  -2.457  -1.116  0.00  0.00    +0.000 NA
BRANCH  10  12
ATOM     12  C   UNL     1      -9.329  -4.753  -0.699  0.00  0.00    +0.000 C 
ATOM     13  N   UNL     1      -9.880  -5.932  -1.377  0.00  0.00    +0.000 NA
ENDBRANCH  10  12
ENDBRANCH   6  10
BRANCH   1  14
ATOM     14  C   UNL     1     -15.485  -4.563  -0.324  0.00  0.00    +0.000 C 
BRANCH  14  15
ATOM     15  C   UNL     1     -14.526  -5.552  -0.992  0.00  0.00    +0.000 C 
BRANCH  15  17
ATOM     16  C   UNL     1     -12.989  -6.211   0.539  0.00  0.00    +0.000 C 
ATOM     17  O   UNL     1     -14.229  -6.532  -0.055  0.00  0.00    +0.000 OA
ENDBRANCH  15  17
ENDBRANCH  14  15
ENDBRANCH   1  14
TORSDOF 5
ENDMDL
