MODEL 1
REMARK VINA RESULT:      -4.9      0.000      0.000
REMARK  Name = 
REMARK  6 active torsions:
REMARK  status: ('A' for Active; 'I' for Inactive)
REMARK    1  A    between atoms: C_2  and  N_3
REMARK    2  A    between atoms: C_4  and  C_6
REMARK    3  A    between atoms: C_6  and  C_7
REMARK    4  A    between atoms: N_9  and  C_10
REMARK    5  A    between atoms: N_14  and  C_15
REMARK    6  A    between atoms: C_19  and  C_20
REMARK                            x       y       z     vdW  Elec       q    Type
REMARK                         _______ _______ _______ _____ _____    ______ ____
ROOT
ATOM      1  C   UNL     1     -11.320  -3.397  -0.947  0.00  0.00    +0.000 C 
ATOM      2  C   UNL     1     -11.598  -3.863   0.605  0.00  0.00    +0.000 C 
ATOM      3  C   UNL     1     -12.651  -4.955   0.477  0.00  0.00    +0.000 C 
ATOM      4  C   UNL     1     -13.695  -4.556  -0.558  0.00  0.00    +0.000 C 
ATOM      5  N   UNL     1     -13.747  -3.119  -0.687  0.00  0.00    +0.000 N 
ATOM      6  C   UNL     1     -12.594  -2.362  -0.998  0.00  0.00    +0.000 C 
ENDROOT
BRANCH   5   7
ATOM      7  C   UNL     1     -14.982  -2.391  -0.508  0.00  0.00    +0.000 A 
ATOM      8  C   UNL     1     -15.002  -1.213   0.203  0.00  0.00    +0.000 A 
ATOM      9  N   UNL     1     -16.129  -0.520   0.384  0.00  0.00    +0.000 NA
ATOM     10  C   UNL     1     -17.268  -1.018  -0.163  0.00  0.00    +0.000 A 
ATOM     11  C   UNL     1     -17.264  -2.197  -0.880  0.00  0.00    +0.000 A 
ATOM     12  N   UNL     1     -16.116  -2.870  -1.043  0.00  0.00    +0.000 NA
BRANCH  11  13
ATOM     13  C   UNL     1     -18.496  -2.717  -1.460  0.00  0.00    +0.000 C 
ATOM     14  N   UNL     1     -19.487  -3.134  -1.903  0.00  0.00    +0.000 NA
ENDBRANCH  11  13
ENDBRANCH   5   7
BRANCH   1  17
ATOM     15  C   UNL     1      -8.953  -2.426  -0.707  0.00  0.00    +0.000 C 
ATOM     16  O   UNL     1      -8.427  -3.496  -1.054  0.00  0.00    +0.000 OA
ATOM     17  N   UNL     1     -10.312  -2.247  -0.620  0.00  0.00    +0.000 NA
BRANCH  15  18
ATOM     18  C   UNL     1      -8.086  -1.242  -0.354  0.00  0.00    +0.000 C 
BRANCH  18  20
ATOM     19  N   UNL     1      -5.646  -1.685  -0.278  0.00  0.00    +0.000 NA
ATOM     20  C   UNL     1      -6.891  -1.660   0.386  0.00  0.00    +0.000 C 
ATOM     21  O   UNL     1      -6.906  -2.003   1.589  0.00  0.00    +0.000 OA
BRANCH  19  23
ATOM     22  C   UNL     1      -3.241  -1.398  -0.308  0.00  0.00    +0.000 C 
ATOM     23  C   UNL     1      -4.429  -2.072   0.347  0.00  0.00    +0.000 C 
ENDBRANCH  19  23
ENDBRANCH  18  20
ENDBRANCH  15  18
ENDBRANCH   1  17
TORSDOF 6
ENDMDL
MODEL 2
REMARK VINA RESULT:      -4.8      6.321     10.338
REMARK  Name = 
REMARK  6 active torsions:
REMARK  status: ('A' for Active; 'I' for Inactive)
REMARK    1  A    between atoms: C_2  and  N_3
REMARK    2  A    between atoms: C_4  and  C_6
REMARK    3  A    between atoms: C_6  and  C_7
REMARK    4  A    between atoms: N_9  and  C_10
REMARK    5  A    between atoms: N_14  and  C_15
REMARK    6  A    between atoms: C_19  and  C_20
REMARK                            x       y       z     vdW  Elec       q    Type
REMARK                         _______ _______ _______ _____ _____    ______ ____
ROOT
ATOM      1  C   UNL     1     -15.326 -10.663  -0.726  0.00  0.00    +0.000 C 
ATOM      2  C   UNL     1     -14.338 -10.602  -2.038  0.00  0.00    +0.000 C 
ATOM      3  C   UNL     1     -12.941 -10.499  -1.441  0.00  0.00    +0.000 C 
ATOM      4  C   UNL     1     -12.948  -9.539  -0.259  0.00  0.00    +0.000 C 
ATOM      5  N   UNL     1     -14.037  -8.599  -0.383  0.00  0.00    +0.000 N 
ATOM      6  C   UNL     1     -15.375  -9.033  -0.530  0.00  0.00    +0.000 C 
ENDROOT
BRANCH   5   7
ATOM      7  C   UNL     1     -13.808  -7.173  -0.360  0.00  0.00    +0.000 A 
ATOM      8  C   UNL     1     -12.527  -6.672  -0.309  0.00  0.00    +0.000 A 
ATOM      9  N   UNL     1     -12.286  -5.358  -0.286  0.00  0.00    +0.000 NA
ATOM     10  C   UNL     1     -13.357  -4.523  -0.317  0.00  0.00    +0.000 A 
ATOM     11  C   UNL     1     -14.646  -5.009  -0.370  0.00  0.00    +0.000 A 
ATOM     12  N   UNL     1     -14.855  -6.334  -0.390  0.00  0.00    +0.000 NA
BRANCH  11  13
ATOM     13  C   UNL     1     -15.783  -4.098  -0.402  0.00  0.00    +0.000 C 
ATOM     14  N   UNL     1     -16.678  -3.356  -0.436  0.00  0.00    +0.000 NA
ENDBRANCH  11  13
ENDBRANCH   5   7
BRANCH   1  17
ATOM     15  C   UNL     1     -17.848 -11.112  -0.933  0.00  0.00    +0.000 C 
ATOM     16  O   UNL     1     -17.920 -11.513   0.240  0.00  0.00    +0.000 OA
ATOM     17  N   UNL     1     -16.679 -10.677  -1.510  0.00  0.00    +0.000 NA
BRANCH  15  18
ATOM     18  C   UNL     1     -19.084 -11.087  -1.798  0.00  0.00    +0.000 C 
BRANCH  18  20
ATOM     19  N   UNL     1     -19.575  -8.802  -0.964  0.00  0.00    +0.000 NA
ATOM     20  C   UNL     1     -20.044 -10.084  -1.323  0.00  0.00    +0.000 C 
ATOM     21  O   UNL     1     -21.271 -10.297  -1.214  0.00  0.00    +0.000 OA
BRANCH  19  23
ATOM     22  C   UNL     1     -19.914  -6.403  -0.943  0.00  0.00    +0.000 C 
ATOM     23  C   UNL     1     -20.420  -7.759  -0.495  0.00  0.00    +0.000 C 
ENDBRANCH  19  23
ENDBRANCH  18  20
ENDBRANCH  15  18
ENDBRANCH   1  17
TORSDOF 6
ENDMDL
MODEL 3
REMARK VINA RESULT:      -4.8      4.327      7.086
REMARK  Name = 
REMARK  6 active torsions:
REMARK  status: ('A' for Active; 'I' for Inactive)
REMARK    1  A    between atoms: C_2  and  N_3
REMARK    2  A    between atoms: C_4  and  C_6
REMARK    3  A    between atoms: C_6  and  C_7
REMARK    4  A    between atoms: N_9  and  C_10
REMARK    5  A    between atoms: N_14  and  C_15
REMARK    6  A    between atoms: C_19  and  C_20
REMARK                            x       y       z     vdW  Elec       q    Type
REMARK                         _______ _______ _______ _____ _____    ______ ____
ROOT
ATOM      1  C   UNL     1      -9.428  -6.581   0.439  0.00  0.00    +0.000 C 
ATOM      2  C   UNL     1      -8.508  -5.841  -0.705  0.00  0.00    +0.000 C 
ATOM      3  C   UNL     1      -7.892  -4.657   0.029  0.00  0.00    +0.000 C 
ATOM      4  C   UNL     1      -8.933  -4.001   0.927  0.00  0.00    +0.000 C 
ATOM      5  N   UNL     1     -10.263  -4.269   0.432  0.00  0.00    +0.000 N 
ATOM      6  C   UNL     1     -10.721  -5.590   0.220  0.00  0.00    +0.000 C 
ENDROOT
BRANCH   5   7
ATOM      7  C   UNL     1     -11.185  -3.198   0.134  0.00  0.00    +0.000 A 
ATOM      8  C   UNL     1     -10.763  -1.888   0.147  0.00  0.00    +0.000 A 
ATOM      9  N   UNL     1     -11.595  -0.879  -0.124  0.00  0.00    +0.000 NA
ATOM     10  C   UNL     1     -12.884  -1.189  -0.419  0.00  0.00    +0.000 A 
ATOM     11  C   UNL     1     -13.322  -2.497  -0.439  0.00  0.00    +0.000 A 
ATOM     12  N   UNL     1     -12.462  -3.488  -0.160  0.00  0.00    +0.000 NA
BRANCH  11  13
ATOM     13  C   UNL     1     -14.709  -2.811  -0.757  0.00  0.00    +0.000 C 
ATOM     14  N   UNL     1     -15.813  -3.080  -1.002  0.00  0.00    +0.000 NA
ENDBRANCH  11  13
ENDBRANCH   5   7
BRANCH   1  17
ATOM     15  C   UNL     1      -9.401  -8.888  -0.691  0.00  0.00    +0.000 C 
ATOM     16  O   UNL     1      -8.325  -9.191  -0.153  0.00  0.00    +0.000 OA
ATOM     17  N   UNL     1     -10.032  -7.684  -0.489  0.00  0.00    +0.000 NA
BRANCH  15  18
ATOM     18  C   UNL     1     -10.081  -9.865  -1.619  0.00  0.00    +0.000 C 
BRANCH  18  20
ATOM     19  N   UNL     1     -12.486 -10.449  -1.438  0.00  0.00    +0.000 NA
ATOM     20  C   UNL     1     -11.171 -10.573  -0.939  0.00  0.00    +0.000 C 
ATOM     21  O   UNL     1     -11.007 -11.290   0.072  0.00  0.00    +0.000 OA
BRANCH  19  23
ATOM     22  C   UNL     1     -14.773 -11.148  -1.827  0.00  0.00    +0.000 C 
ATOM     23  C   UNL     1     -13.612 -11.093  -0.855  0.00  0.00    +0.000 C 
ENDBRANCH  19  23
ENDBRANCH  18  20
ENDBRANCH  15  18
ENDBRANCH   1  17
TORSDOF 6
ENDMDL
MODEL 4
REMARK VINA RESULT:      -4.7      3.485      8.975
REMARK  Name = 
REMARK  6 active torsions:
REMARK  status: ('A' for Active; 'I' for Inactive)
REMARK    1  A    between atoms: C_2  and  N_3
REMARK    2  A    between atoms: C_4  and  C_6
REMARK    3  A    between atoms: C_6  and  C_7
REMARK    4  A    between atoms: N_9  and  C_10
REMARK    5  A    between atoms: N_14  and  C_15
REMARK    6  A    between atoms: C_19  and  C_20
REMARK                            x       y       z     vdW  Elec       q    Type
REMARK                         _______ _______ _______ _____ _____    ______ ____
ROOT
ATOM      1  C   UNL     1     -10.320  -2.187  -1.008  0.00  0.00    +0.000 C 
ATOM      2  C   UNL     1      -9.559  -1.411   0.226  0.00  0.00    +0.000 C 
ATOM      3  C   UNL     1      -8.210  -1.022  -0.363  0.00  0.00    +0.000 C 
ATOM      4  C   UNL     1      -7.656  -2.167  -1.200  0.00  0.00    +0.000 C 
ATOM      5  N   UNL     1      -8.212  -3.425  -0.760  0.00  0.00    +0.000 N 
ATOM      6  C   UNL     1      -9.608  -3.636  -0.702  0.00  0.00    +0.000 C 
ENDROOT
BRANCH   5   7
ATOM      7  C   UNL     1      -7.364  -4.525  -0.361  0.00  0.00    +0.000 A 
ATOM      8  C   UNL     1      -6.059  -4.300   0.015  0.00  0.00    +0.000 A 
ATOM      9  N   UNL     1      -5.254  -5.299   0.388  0.00  0.00    +0.000 NA
ATOM     10  C   UNL     1      -5.769  -6.555   0.385  0.00  0.00    +0.000 A 
ATOM     11  C   UNL     1      -7.075  -6.796   0.013  0.00  0.00    +0.000 A 
ATOM     12  N   UNL     1      -7.858  -5.772  -0.358  0.00  0.00    +0.000 NA
BRANCH  11  13
ATOM     13  C   UNL     1      -7.610  -8.152   0.015  0.00  0.00    +0.000 C 
ATOM     14  N   UNL     1      -8.036  -9.233  -0.003  0.00  0.00    +0.000 NA
ENDBRANCH  11  13
ENDBRANCH   5   7
BRANCH   1  17
ATOM     15  C   UNL     1     -12.707  -1.751  -0.161  0.00  0.00    +0.000 C 
ATOM     16  O   UNL     1     -12.760  -0.651  -0.733  0.00  0.00    +0.000 OA
ATOM     17  N   UNL     1     -11.610  -2.578  -0.216  0.00  0.00    +0.000 NA
BRANCH  15  18
ATOM     18  C   UNL     1     -13.886  -2.238   0.646  0.00  0.00    +0.000 C 
BRANCH  18  20
ATOM     19  N   UNL     1     -16.109  -1.189   0.307  0.00  0.00    +0.000 NA
ATOM     20  C   UNL     1     -15.134  -2.119  -0.115  0.00  0.00    +0.000 C 
ATOM     21  O   UNL     1     -15.394  -2.800  -1.131  0.00  0.00    +0.000 OA
BRANCH  19  23
ATOM     22  C   UNL     1     -18.452  -1.807   0.289  0.00  0.00    +0.000 C 
ATOM     23  C   UNL     1     -17.350  -0.994  -0.360  0.00  0.00    +0.000 C 
ENDBRANCH  19  23
ENDBRANCH  18  20
ENDBRANCH  15  18
ENDBRANCH   1  17
TORSDOF 6
ENDMDL
MODEL 5
REMARK VINA RESULT:      -4.7      3.079      5.081
REMARK  Name = 
REMARK  6 active torsions:
REMARK  status: ('A' for Active; 'I' for Inactive)
REMARK    1  A    between atoms: C_2  and  N_3
REMARK    2  A    between atoms: C_4  and  C_6
REMARK    3  A    between atoms: C_6  and  C_7
REMARK    4  A    between atoms: N_9  and  C_10
REMARK    5  A    between atoms: N_14  and  C_15
REMARK    6  A    between atoms: C_19  and  C_20
REMARK                            x       y       z     vdW  Elec       q    Type
REMARK                         _______ _______ _______ _____ _____    ______ ____
ROOT
ATOM      1  C   UNL     1     -12.404  -3.066  -0.302  0.00  0.00    +0.000 C 
ATOM      2  C   UNL     1     -13.447  -3.049  -1.573  0.00  0.00    +0.000 C 
ATOM      3  C   UNL     1     -14.802  -3.327  -0.938  0.00  0.00    +0.000 C 
ATOM      4  C   UNL     1     -14.671  -4.414   0.121  0.00  0.00    +0.000 C 
ATOM      5  N   UNL     1     -13.525  -5.247  -0.157  0.00  0.00    +0.000 N 
ATOM      6  C   UNL     1     -12.230  -4.700  -0.304  0.00  0.00    +0.000 C 
ENDROOT
BRANCH   5   7
ATOM      7  C   UNL     1     -13.652  -6.680  -0.295  0.00  0.00    +0.000 A 
ATOM      8  C   UNL     1     -14.868  -7.248  -0.600  0.00  0.00    +0.000 A 
ATOM      9  N   UNL     1     -15.013  -8.569  -0.733  0.00  0.00    +0.000 NA
ATOM     10  C   UNL     1     -13.911  -9.343  -0.557  0.00  0.00    +0.000 A 
ATOM     11  C   UNL     1     -12.685  -8.789  -0.253  0.00  0.00    +0.000 A 
ATOM     12  N   UNL     1     -12.572  -7.458  -0.125  0.00  0.00    +0.000 NA
BRANCH  11  13
ATOM     13  C   UNL     1     -11.513  -9.635  -0.067  0.00  0.00    +0.000 C 
ATOM     14  N   UNL     1     -10.569 -10.301   0.066  0.00  0.00    +0.000 NA
ENDBRANCH  11  13
ENDBRANCH   5   7
BRANCH   1  17
ATOM     15  C   UNL     1      -9.872  -2.686  -0.527  0.00  0.00    +0.000 C 
ATOM     16  O   UNL     1      -9.715  -2.690   0.704  0.00  0.00    +0.000 OA
ATOM     17  N   UNL     1     -11.094  -2.859  -1.131  0.00  0.00    +0.000 NA
BRANCH  15  18
ATOM     18  C   UNL     1      -8.686  -2.484  -1.437  0.00  0.00    +0.000 C 
BRANCH  18  20
ATOM     19  N   UNL     1      -6.452  -2.307  -0.371  0.00  0.00    +0.000 NA
ATOM     20  C   UNL     1      -7.647  -1.680  -0.784  0.00  0.00    +0.000 C 
ATOM     21  O   UNL     1      -7.755  -0.453  -0.567  0.00  0.00    +0.000 OA
BRANCH  19  23
ATOM     22  C   UNL     1      -4.047  -2.021  -0.322  0.00  0.00    +0.000 C 
ATOM     23  C   UNL     1      -5.383  -1.620   0.268  0.00  0.00    +0.000 C 
ENDBRANCH  19  23
ENDBRANCH  18  20
ENDBRANCH  15  18
ENDBRANCH   1  17
TORSDOF 6
ENDMDL
