REMARK  Name = 
REMARK  4 active torsions:
REMARK  status: ('A' for Active; 'I' for Inactive)
REMARK    1  A    between atoms: N_4  and  C_5
REMARK    2  A    between atoms: C_5  and  C_7
REMARK    3  A    between atoms: N_15  and  C_16
REMARK    4  A    between atoms: C_19  and  C_20
REMARK                            x       y       z     vdW  Elec       q    Type
REMARK                         _______ _______ _______ _____ _____    ______ ____
ROOT
ATOM      1  C   UNL     1      -3.199  -0.233   0.159  0.00  0.00    +0.000 C 
ATOM      2  O   UNL     1      -3.887  -0.857  -0.591  0.00  0.00    +0.000 OA
ATOM      3  N   UNL     1      -1.802  -0.263   0.183  0.00  0.00    +0.000 N 
ATOM      4  C   UNL     1      -0.824   0.288   0.938  0.00  0.00    +0.000 C 
ATOM      5  C   UNL     1       0.384   0.758  -0.082  0.00  0.00    +0.000 C 
ATOM      6  C   UNL     1      -0.347   0.317  -1.481  0.00  0.00    +0.000 C 
ATOM      7  C   UNL     1      -1.068  -1.085  -0.941  0.00  0.00    +0.000 C 
ATOM      8  C   UNL     1       0.219  -1.594  -0.058  0.00  0.00    +0.000 C 
ATOM      9  N   UNL     1       1.144  -0.628  -0.029  0.00  0.00    +0.000 N 
ENDROOT
BRANCH   9  10
ATOM     10  C   UNL     1       2.545  -0.573   0.019  0.00  0.00    +0.000 A 
ATOM     11  C   UNL     1       3.375  -1.576  -0.447  0.00  0.00    +0.000 A 
ATOM     12  N   UNL     1       4.709  -1.469  -0.327  0.00  0.00    +0.000 NA
ATOM     13  C   UNL     1       5.275  -0.392   0.245  0.00  0.00    +0.000 A 
ATOM     14  C   UNL     1       4.483   0.620   0.716  0.00  0.00    +0.000 A 
ATOM     15  N   UNL     1       3.130   0.507   0.592  0.00  0.00    +0.000 NA
BRANCH  13  16
ATOM     16  C   UNL     1       6.713  -0.272   0.394  0.00  0.00    +0.000 C 
ATOM     17  N   UNL     1       7.848  -0.180   0.532  0.00  0.00    +0.000 NA
ENDBRANCH  13  16
ENDBRANCH   9  10
BRANCH   1  18
ATOM     18  C   UNL     1      -3.824   0.753   1.268  0.00  0.00    +0.000 C 
ATOM     19  C   UNL     1      -4.698  -0.468   2.050  0.00  0.00    +0.000 C 
BRANCH  18  23
ATOM     20  C   UNL     1      -6.245   2.016  -1.576  0.00  0.00    +0.000 C 
ATOM     21  C   UNL     1      -4.988   1.575  -0.881  0.00  0.00    +0.000 C 
ATOM     22  O   UNL     1      -3.881   1.533  -1.505  0.00  0.00    +0.000 OA
ATOM     23  N   UNL     1      -5.061   1.223   0.435  0.00  0.00    +0.000 NA
ENDBRANCH  18  23
ENDBRANCH   1  18
TORSDOF 4
