REMARK  Name = 
REMARK  4 active torsions:
REMARK  status: ('A' for Active; 'I' for Inactive)
REMARK    1  A    between atoms: C_2  and  C_4
REMARK    2  A    between atoms: C_4  and  N_5
REMARK    3  A    between atoms: N_5  and  S_7
REMARK    4  A    between atoms: S_7  and  C_10
REMARK                            x       y       z     vdW  Elec       q    Type
REMARK                         _______ _______ _______ _____ _____    ______ ____
ROOT
ATOM      1  C   UNL     1       0.236  -0.207  -0.926  0.00  0.00    +0.000 A 
ATOM      2  C   UNL     1      -0.091  -1.550  -1.174  0.00  0.00    +0.000 A 
ATOM      3  C   UNL     1      -1.271  -2.137  -0.719  0.00  0.00    +0.000 A 
ATOM      4  C   UNL     1      -2.196  -1.397   0.017  0.00  0.00    +0.000 A 
ATOM      5  C   UNL     1      -1.843  -0.091   0.238  0.00  0.00    +0.000 A 
ATOM      6  C   UNL     1      -2.825   0.533   0.969  0.00  0.00    +0.000 A 
ATOM      7  C   UNL     1      -2.618   1.882   1.284  0.00  0.00    +0.000 A 
ATOM      8  C   UNL     1      -1.469   2.516   0.861  0.00  0.00    +0.000 A 
ATOM      9  C   UNL     1      -0.545   1.827   0.141  0.00  0.00    +0.000 A 
ATOM     10  C   UNL     1      -0.690   0.506  -0.198  0.00  0.00    +0.000 A 
ATOM     11  C   UNL     1      -3.886  -0.430   1.240  0.00  0.00    +0.000 C 
ATOM     12  O   UNL     1      -4.920  -0.173   1.882  0.00  0.00    +0.000 OA
ATOM     13  N   UNL     1      -3.461  -1.653   0.622  0.00  0.00    +0.000 N 
ATOM     14  C   UNL     1      -4.180  -2.881   0.624  0.00  0.00    +0.000 C 
ENDROOT
BRANCH   1  15
ATOM     15  S   UNL     1       1.687   0.545  -1.476  0.00  0.00    +0.000 S 
ATOM     16  O   UNL     1       1.367   1.687  -2.420  0.00  0.00    +0.000 OA
ATOM     17  O   UNL     1       2.510  -0.432  -2.288  0.00  0.00    +0.000 OA
BRANCH  15  18
ATOM     18  N   UNL     1       2.680   1.159  -0.242  0.00  0.00    +0.000 NA
ATOM     19  C   UNL     1       3.889   1.791  -0.705  0.00  0.00    +0.000 C 
BRANCH  18  20
ATOM     20  C   UNL     1       3.094   0.063   0.606  0.00  0.00    +0.000 C 
BRANCH  20  22
ATOM     21  C   UNL     1       4.709  -1.651   0.967  0.00  0.00    +0.000 C 
ATOM     22  C   UNL     1       4.445  -0.466  -0.133  0.00  0.00    +0.000 C 
ATOM     23  N   UNL     1       5.378   0.558   0.629  0.00  0.00    +0.000 NA
ENDBRANCH  20  22
ENDBRANCH  18  20
ENDBRANCH  15  18
ENDBRANCH   1  15
TORSDOF 4
