REMARK  Name = 
REMARK  5 active torsions:
REMARK  status: ('A' for Active; 'I' for Inactive)
REMARK    1  A    between atoms: O_2  and  C_3
REMARK    2  A    between atoms: C_3  and  C_4
REMARK    3  A    between atoms: C_4  and  C_5
REMARK    4  A    between atoms: C_10  and  C_12
REMARK    5  A    between atoms: C_12  and  C_14
REMARK                            x       y       z     vdW  Elec       q    Type
REMARK                         _______ _______ _______ _____ _____    ______ ____
ROOT
ATOM      1  C   UNL     1       1.460   1.074  -0.443  0.00  0.00    +0.000 C 
ATOM      2  N   UNL     1       2.261   2.303  -0.314  0.00  0.00    +0.000 NA
ATOM      3  C   UNL     1       0.615   1.188  -1.622  0.00  0.00    +0.000 C 
ATOM      4  C   UNL     1      -0.722   0.545  -1.599  0.00  0.00    +0.000 C 
ATOM      5  N   UNL     1      -1.187   0.214  -0.255  0.00  0.00    +0.000 N 
ATOM      6  C   UNL     1      -2.056  -0.854  -0.153  0.00  0.00    +0.000 C 
ATOM      7  O   UNL     1      -2.461  -1.541  -1.127  0.00  0.00    +0.000 OA
ATOM      8  C   UNL     1      -0.675   1.048   0.794  0.00  0.00    +0.000 C 
ATOM      9  C   UNL     1       0.818   0.823   0.866  0.00  0.00    +0.000 C 
ENDROOT
BRANCH   6  10
ATOM     10  C   UNL     1      -2.652  -1.340   1.251  0.00  0.00    +0.000 C 
ATOM     11  N   UNL     1      -1.927  -0.265   2.155  0.00  0.00    +0.000 NA
BRANCH  10  12
ATOM     12  C   UNL     1      -4.037  -0.423   1.097  0.00  0.00    +0.000 C 
ATOM     13  N   UNL     1      -4.767  -0.729   2.333  0.00  0.00    +0.000 NA
ENDBRANCH  10  12
ENDBRANCH   6  10
BRANCH   1  14
ATOM     14  C   UNL     1       2.489  -0.040  -0.676  0.00  0.00    +0.000 C 
BRANCH  14  15
ATOM     15  C   UNL     1       3.439  -0.095   0.524  0.00  0.00    +0.000 C 
BRANCH  15  17
ATOM     16  C   UNL     1       5.049  -0.798  -0.911  0.00  0.00    +0.000 C 
ATOM     17  O   UNL     1       4.353  -1.111   0.277  0.00  0.00    +0.000 OA
ENDBRANCH  15  17
ENDBRANCH  14  15
ENDBRANCH   1  14
TORSDOF 5
