REMARK  Name = 
REMARK  6 active torsions:
REMARK  status: ('A' for Active; 'I' for Inactive)
REMARK    1  A    between atoms: O_2  and  C_3
REMARK    2  A    between atoms: C_4  and  N_5
REMARK    3  A    between atoms: N_8  and  C_9
REMARK    4  A    between atoms: C_9  and  C_10
REMARK    5  A    between atoms: C_10  and  C_12
REMARK    6  A    between atoms: C_19  and  C_20
REMARK                            x       y       z     vdW  Elec       q    Type
REMARK                         _______ _______ _______ _____ _____    ______ ____
ROOT
ATOM      1  C   UNL     1      -2.275  -0.383  -0.565  0.00  0.00    +0.000 A 
ATOM      2  C   UNL     1      -1.419   0.428   0.148  0.00  0.00    +0.000 A 
ATOM      3  C   UNL     1      -1.980   1.399   0.950  0.00  0.00    +0.000 A 
ATOM      4  C   UNL     1      -3.352   1.560   1.042  0.00  0.00    +0.000 A 
ATOM      5  C   UNL     1      -4.159   0.721   0.307  0.00  0.00    +0.000 A 
ATOM      6  C   UNL     1      -3.635  -0.279  -0.521  0.00  0.00    +0.000 A 
ENDROOT
BRANCH   2   7
ATOM      7  N   UNL     1      -0.015   0.226   0.023  0.00  0.00    +0.000 NA
ATOM      8  C   UNL     1       0.931   1.021   0.725  0.00  0.00    +0.000 C 
ATOM      9  O   UNL     1       0.512   1.944   1.491  0.00  0.00    +0.000 OA
ATOM     10  N   UNL     1       2.313   0.861   0.634  0.00  0.00    +0.000 NA
BRANCH  10  11
ATOM     11  C   UNL     1       3.283   1.614   1.302  0.00  0.00    +0.000 C 
BRANCH  11  12
ATOM     12  C   UNL     1       4.771   1.101   0.916  0.00  0.00    +0.000 C 
ATOM     13  C   UNL     1       4.613   1.391  -0.696  0.00  0.00    +0.000 C 
BRANCH  12  14
ATOM     14  C   UNL     1       4.435  -0.487   0.889  0.00  0.00    +0.000 C 
ATOM     15  C   UNL     1       3.448  -0.877  -0.077  0.00  0.00    +0.000 C 
ATOM     16  C   UNL     1       5.813  -1.055   0.540  0.00  0.00    +0.000 C 
ATOM     17  C   UNL     1       4.140  -0.860   2.330  0.00  0.00    +0.000 C 
ENDBRANCH  12  14
ENDBRANCH  11  12
ENDBRANCH  10  11
ENDBRANCH   2   7
BRANCH   6  18
ATOM     18  C   UNL     1      -4.502  -1.154  -1.289  0.00  0.00    +0.000 C 
ATOM     19  O   UNL     1      -5.740  -1.026  -1.220  0.00  0.00    +0.000 OA
ATOM     20  O   UNL     1      -3.919  -2.120  -2.086  0.00  0.00    +0.000 OA
ENDBRANCH   6  18
BRANCH   1  22
ATOM     21  C   UNL     1      -1.528  -2.647  -0.781  0.00  0.00    +0.000 C 
ATOM     22  O   UNL     1      -1.737  -1.377  -1.389  0.00  0.00    +0.000 OA
ENDBRANCH   1  22
TORSDOF 6
