REMARK  Name = 
REMARK  6 active torsions:
REMARK  status: ('A' for Active; 'I' for Inactive)
REMARK    1  A    between atoms: C_2  and  O_3
REMARK    2  A    between atoms: O_3  and  C_4
REMARK    3  A    between atoms: C_4  and  C_6
REMARK    4  A    between atoms: C_6  and  C_7
REMARK    5  A    between atoms: N_9  and  C_10
REMARK    6  A    between atoms: C_10  and  C_11
REMARK                            x       y       z     vdW  Elec       q    Type
REMARK                         _______ _______ _______ _____ _____    ______ ____
ROOT
ATOM      1  C   UNL     1      -0.589  -0.896  -0.360  0.00  0.00    +0.000 C 
ATOM      2  O   UNL     1      -0.263  -1.106   0.812  0.00  0.00    +0.000 OA
ATOM      3  N   UNL     1       0.270  -0.625  -1.349  0.00  0.00    +0.000 NA
ENDROOT
BRANCH   1   4
ATOM      4  C   UNL     1      -2.081  -0.887  -0.577  0.00  0.00    +0.000 C 
ATOM      5  C   UNL     1      -2.544  -1.351  -1.869  0.00  0.00    +0.000 C 
ATOM      6  C   UNL     1      -3.545  -2.359  -1.202  0.00  0.00    +0.000 C 
ATOM      7  C   UNL     1      -2.629  -2.267  -0.014  0.00  0.00    +0.000 C 
BRANCH   4   8
ATOM      8  C   UNL     1      -2.838   0.247   0.024  0.00  0.00    +0.000 C 
ATOM      9  O   UNL     1      -3.925   0.466   0.051  0.00  0.00    +0.000 OA
BRANCH   8  10
ATOM     10  O   UNL     1      -1.930   1.125   0.800  0.00  0.00    +0.000 OA
BRANCH  10  12
ATOM     11  C   UNL     1      -3.158   3.218   1.251  0.00  0.00    +0.000 C 
ATOM     12  C   UNL     1      -2.416   2.104   1.692  0.00  0.00    +0.000 C 
ENDBRANCH  10  12
ENDBRANCH   8  10
ENDBRANCH   4   8
ENDBRANCH   1   4
BRANCH   3  13
ATOM     13  C   UNL     1       1.577  -0.503  -1.524  0.00  0.00    +0.000 C 
BRANCH  13  14
ATOM     14  C   UNL     1       2.510  -0.021  -0.438  0.00  0.00    +0.000 A 
ATOM     15  C   UNL     1       2.612  -0.413   0.754  0.00  0.00    +0.000 A 
ATOM     16  C   UNL     1       3.572  -0.056   1.558  0.00  0.00    +0.000 A 
ATOM     17 CL   UNL     1       3.957  -0.303   3.197  0.00  0.00    +0.000 Cl
ATOM     18  S   UNL     1       4.455   1.035   0.532  0.00  0.00    +0.000 S 
ATOM     19  C   UNL     1       3.469   0.931  -0.851  0.00  0.00    +0.000 A 
ATOM     20 CL   UNL     1       3.495   1.660  -2.488  0.00  0.00    +0.000 Cl
ENDBRANCH  13  14
ENDBRANCH   3  13
TORSDOF 6
