REMARK  Name = 
REMARK  6 active torsions:
REMARK  status: ('A' for Active; 'I' for Inactive)
REMARK    1  A    between atoms: S_2  and  C_3
REMARK    2  A    between atoms: C_5  and  C_6
REMARK    3  A    between atoms: N_8  and  C_9
REMARK    4  A    between atoms: C_9  and  C_10
REMARK    5  A    between atoms: C_9  and  C_12
REMARK    6  A    between atoms: C_16  and  C_17
REMARK                            x       y       z     vdW  Elec       q    Type
REMARK                         _______ _______ _______ _____ _____    ______ ____
ROOT
ATOM      1  C   UNL     1      -0.703  -1.120  -1.328  0.00  0.00    +0.000 C 
ENDROOT
BRANCH   1   2
ATOM      2  C   UNL     1      -2.080  -0.774  -0.649  0.00  0.00    +0.000 A 
ATOM      3  C   UNL     1      -2.876  -1.809  -0.311  0.00  0.00    +0.000 A 
ATOM      4  C   UNL     1      -4.164  -1.580   0.177  0.00  0.00    +0.000 A 
ATOM      5  C   UNL     1      -4.607  -0.285   0.296  0.00  0.00    +0.000 A 
ATOM      6  C   UNL     1      -3.756   0.768  -0.071  0.00  0.00    +0.000 A 
ATOM      7  C   UNL     1      -2.470   0.485  -0.539  0.00  0.00    +0.000 A 
BRANCH   6   8
ATOM      8  C   UNL     1      -4.222   2.156  -0.037  0.00  0.00    +0.000 C 
ATOM      9  F   UNL     1      -5.631   2.200  -0.017  0.00  0.00    +0.000 F 
ATOM     10  F   UNL     1      -3.726   2.948  -1.082  0.00  0.00    +0.000 F 
ATOM     11  F   UNL     1      -3.812   2.708   1.142  0.00  0.00    +0.000 F 
ENDBRANCH   6   8
ENDBRANCH   1   2
BRANCH   1  14
ATOM     12  C   UNL     1       1.578  -0.992  -0.385  0.00  0.00    +0.000 C 
ATOM     13  O   UNL     1       1.707  -2.050  -1.115  0.00  0.00    +0.000 OA
ATOM     14  N   UNL     1       0.273  -0.369  -0.363  0.00  0.00    +0.000 NA
BRANCH  12  17
ATOM     15  C   UNL     1       4.848   0.603   0.075  0.00  0.00    +0.000 A 
ATOM     16  C   UNL     1       3.640   0.196  -0.462  0.00  0.00    +0.000 A 
ATOM     17  C   UNL     1       2.751  -0.579   0.303  0.00  0.00    +0.000 A 
ATOM     18  C   UNL     1       3.161  -0.869   1.551  0.00  0.00    +0.000 A 
ATOM     19  C   UNL     1       4.341  -0.472   2.086  0.00  0.00    +0.000 A 
ATOM     20  N   UNL     1       5.197   0.275   1.335  0.00  0.00    +0.000 NA
BRANCH  15  22
ATOM     21  C   UNL     1       5.526   3.302  -0.801  0.00  0.00    +0.000 C 
ATOM     22  S   UNL     1       5.908   1.541  -1.001  0.00  0.00    +0.000 S 
ENDBRANCH  15  22
ENDBRANCH  12  17
ENDBRANCH   1  14
BRANCH   1  23
ATOM     23  C   UNL     1      -0.511  -2.590  -0.852  0.00  0.00    +0.000 C 
ATOM     24  N   UNL     1      -0.375  -3.692  -0.487  0.00  0.00    +0.000 NA
ENDBRANCH   1  23
TORSDOF 6
