REMARK  Name = 
REMARK  6 active torsions:
REMARK  status: ('A' for Active; 'I' for Inactive)
REMARK    1  A    between atoms: C_2  and  C_3
REMARK    2  A    between atoms: C_3  and  C_4
REMARK    3  A    between atoms: C_4  and  C_5
REMARK    4  A    between atoms: C_5  and  C_6
REMARK    5  A    between atoms: C_5  and  O_8
REMARK    6  A    between atoms: O_8  and  C_9
REMARK                            x       y       z     vdW  Elec       q    Type
REMARK                         _______ _______ _______ _____ _____    ______ ____
ROOT
ATOM      1  C   UNL     1       0.440   0.077  -0.152  0.00  0.00    +0.000 A 
ATOM      2  C   UNL     1      -0.191   1.224  -0.605  0.00  0.00    +0.000 A 
ATOM      3  C   UNL     1       0.527   2.388  -0.768  0.00  0.00    +0.000 A 
ATOM      4  C   UNL     1       1.860   2.454  -0.492  0.00  0.00    +0.000 A 
ATOM      5  C   UNL     1       2.506   1.335  -0.052  0.00  0.00    +0.000 A 
ATOM      6  C   UNL     1       3.847   1.305   0.186  0.00  0.00    +0.000 A 
ATOM      7  N   UNL     1       4.453   0.195   0.568  0.00  0.00    +0.000 NA
ATOM      8  C   UNL     1       3.769  -1.000   0.741  0.00  0.00    +0.000 A 
ATOM      9  N   UNL     1       2.453  -0.933   0.489  0.00  0.00    +0.000 NA
ATOM     10  C   UNL     1       1.776   0.146   0.105  0.00  0.00    +0.000 A 
ENDROOT
BRANCH   1  11
ATOM     11  O   UNL     1      -0.264  -1.108   0.049  0.00  0.00    +0.000 OA
BRANCH  11  12
ATOM     12  C   UNL     1      -1.737  -0.913  -0.540  0.00  0.00    +0.000 C 
BRANCH  12  13
ATOM     13  C   UNL     1      -2.287  -2.393  -0.071  0.00  0.00    +0.000 C 
ATOM     14  C   UNL     1      -2.072  -3.341  -1.213  0.00  0.00    +0.000 C 
ENDBRANCH  12  13
BRANCH  12  15
ATOM     15  C   UNL     1      -2.225  -0.309   1.027  0.00  0.00    +0.000 C 
BRANCH  15  16
ATOM     16  C   UNL     1      -3.729  -0.561   0.810  0.00  0.00    +0.000 C 
BRANCH  16  18
ATOM     17  C   UNL     1      -4.997   1.199  -0.447  0.00  0.00    +0.000 C 
ATOM     18  C   UNL     1      -4.129   0.237  -0.439  0.00  0.00    +0.000 C 
ENDBRANCH  16  18
ENDBRANCH  15  16
ENDBRANCH  12  15
ENDBRANCH  11  12
ENDBRANCH   1  11
TORSDOF 6
