REMARK  Name = 
REMARK  4 active torsions:
REMARK  status: ('A' for Active; 'I' for Inactive)
REMARK    1  A    between atoms: C_8  and  N_9
REMARK    2  A    between atoms: C_10  and  C_12
REMARK    3  A    between atoms: C_14  and  N_15
REMARK    4  A    between atoms: C_19  and  N_20
REMARK                            x       y       z     vdW  Elec       q    Type
REMARK                         _______ _______ _______ _____ _____    ______ ____
ROOT
ATOM      1  C   UNL     1      -0.928  -0.213   0.100  0.00  0.00    +0.000 A 
ATOM      2  C   UNL     1      -1.540   1.026   0.041  0.00  0.00    +0.000 A 
ATOM      3  C   UNL     1      -2.905   1.149  -0.095  0.00  0.00    +0.000 A 
ATOM      4  C   UNL     1      -3.701   0.022  -0.175  0.00  0.00    +0.000 A 
ATOM      5  C   UNL     1      -3.109  -1.223  -0.118  0.00  0.00    +0.000 A 
ATOM      6  C   UNL     1      -1.738  -1.332   0.019  0.00  0.00    +0.000 A 
ATOM      7  C   UNL     1      -1.142  -2.692   0.077  0.00  0.00    +0.000 C 
ENDROOT
BRANCH   1   9
ATOM      8  N   UNL     1       1.414   0.600  -0.381  0.00  0.00    +0.000 NA
ATOM      9  C   UNL     1       0.535  -0.319   0.245  0.00  0.00    +0.000 C 
ATOM     10  O   UNL     1       1.038  -1.243   0.938  0.00  0.00    +0.000 OA
BRANCH   8  18
ATOM     11  C   UNL     1       3.132   2.428  -1.621  0.00  0.00    +0.000 C 
ATOM     12  C   UNL     1       3.695   1.325  -0.799  0.00  0.00    +0.000 A 
ATOM     13  C   UNL     1       5.048   1.140  -0.603  0.00  0.00    +0.000 A 
ATOM     14  C   UNL     1       5.549   0.097   0.172  0.00  0.00    +0.000 A 
ATOM     15 CL   UNL     1       7.281  -0.048   0.356  0.00  0.00    +0.000 Cl
ATOM     16  N   UNL     1       4.660  -0.719   0.720  0.00  0.00    +0.000 NA
ATOM     17  C   UNL     1       3.328  -0.601   0.574  0.00  0.00    +0.000 A 
ATOM     18  C   UNL     1       2.831   0.435  -0.196  0.00  0.00    +0.000 A 
ENDBRANCH   8  18
ENDBRANCH   1   9
BRANCH   3  19
ATOM     19  N   UNL     1      -3.542   2.421  -0.158  0.00  0.00    +0.000 N 
ATOM     20  O   UNL     1      -4.774   2.536  -0.281  0.00  0.00    +0.000 OA
ATOM     21  O   UNL     1      -2.765   3.537  -0.079  0.00  0.00    +0.000 OA
ENDBRANCH   3  19
BRANCH   5  22
ATOM     22  N   UNL     1      -3.903  -2.392  -0.198  0.00  0.00    +0.000 N 
ATOM     23  O   UNL     1      -5.086  -2.375   0.178  0.00  0.00    +0.000 OA
ATOM     24  O   UNL     1      -3.380  -3.557  -0.690  0.00  0.00    +0.000 OA
ENDBRANCH   5  22
TORSDOF 4
