REMARK  Name = 
REMARK  6 active torsions:
REMARK  status: ('A' for Active; 'I' for Inactive)
REMARK    1  A    between atoms: C_2  and  N_3
REMARK    2  A    between atoms: C_4  and  C_6
REMARK    3  A    between atoms: C_6  and  C_7
REMARK    4  A    between atoms: N_9  and  C_10
REMARK    5  A    between atoms: N_14  and  C_15
REMARK    6  A    between atoms: C_19  and  C_20
REMARK                            x       y       z     vdW  Elec       q    Type
REMARK                         _______ _______ _______ _____ _____    ______ ____
ROOT
ATOM      1  C   UNL     1      -0.046  -2.169  -1.711  0.00  0.00    +0.000 C 
ATOM      2  C   UNL     1      -0.021  -2.589  -0.122  0.00  0.00    +0.000 C 
ATOM      3  C   UNL     1      -1.370  -3.258   0.102  0.00  0.00    +0.000 C 
ATOM      4  C   UNL     1      -2.464  -2.482  -0.620  0.00  0.00    +0.000 C 
ATOM      5  N   UNL     1      -2.066  -1.106  -0.801  0.00  0.00    +0.000 N 
ATOM      6  C   UNL     1      -0.861  -0.765  -1.457  0.00  0.00    +0.000 C 
ENDROOT
BRANCH   5   7
ATOM      7  C   UNL     1      -2.884  -0.016  -0.322  0.00  0.00    +0.000 A 
ATOM      8  C   UNL     1      -4.109  -0.263   0.255  0.00  0.00    +0.000 A 
ATOM      9  N   UNL     1      -4.886   0.726   0.706  0.00  0.00    +0.000 NA
ATOM     10  C   UNL     1      -4.423   1.996   0.578  0.00  0.00    +0.000 A 
ATOM     11  C   UNL     1      -3.197   2.260   0.004  0.00  0.00    +0.000 A 
ATOM     12  N   UNL     1      -2.441   1.245  -0.441  0.00  0.00    +0.000 NA
BRANCH  11  13
ATOM     13  C   UNL     1      -2.717   3.630  -0.126  0.00  0.00    +0.000 C 
ATOM     14  N   UNL     1      -2.318   4.716  -0.240  0.00  0.00    +0.000 NA
ENDBRANCH  11  13
ENDBRANCH   5   7
BRANCH   1  17
ATOM     15  C   UNL     1       2.007  -1.116  -0.580  0.00  0.00    +0.000 C 
ATOM     16  O   UNL     1       1.577  -1.381   0.554  0.00  0.00    +0.000 OA
ATOM     17  N   UNL     1       1.337  -1.440  -1.735  0.00  0.00    +0.000 NA
BRANCH  15  18
ATOM     18  C   UNL     1       3.328  -0.403  -0.737  0.00  0.00    +0.000 C 
BRANCH  18  20
ATOM     19  N   UNL     1       5.173   0.557   0.616  0.00  0.00    +0.000 NA
ATOM     20  C   UNL     1       3.945  -0.136   0.567  0.00  0.00    +0.000 C 
ATOM     21  O   UNL     1       3.443  -0.490   1.656  0.00  0.00    +0.000 OA
BRANCH  19  23
ATOM     22  C   UNL     1       7.141   1.617   1.551  0.00  0.00    +0.000 C 
ATOM     23  C   UNL     1       5.853   0.868   1.826  0.00  0.00    +0.000 C 
ENDBRANCH  19  23
ENDBRANCH  18  20
ENDBRANCH  15  18
ENDBRANCH   1  17
TORSDOF 6
