REMARK  Name = 
REMARK  7 active torsions:
REMARK  status: ('A' for Active; 'I' for Inactive)
REMARK    1  A    between atoms: C_2  and  C_3
REMARK    2  A    between atoms: C_3  and  C_4
REMARK    3  A    between atoms: C_4  and  C_5
REMARK    4  A    between atoms: N_13  and  C_14
REMARK    5  A    between atoms: C_14  and  C_15
REMARK    6  A    between atoms: C_15  and  C_16
REMARK    7  A    between atoms: N_21  and  C_22
REMARK                            x       y       z     vdW  Elec       q    Type
REMARK                         _______ _______ _______ _____ _____    ______ ____
ROOT
ATOM      1  C   UNL     1      -3.537   0.240   0.054  0.00  0.00    +0.000 C 
ATOM      2  C   UNL     1      -3.981   1.234   1.090  0.00  0.00    +0.000 C 
ATOM      3  C   UNL     1      -3.444   2.537   0.578  0.00  0.00    +0.000 C 
ATOM      4  C   UNL     1      -2.568   2.224  -0.607  0.00  0.00    +0.000 C 
ATOM      5  N   UNL     1      -2.274   0.805  -0.390  0.00  0.00    +0.000 N 
ATOM      6  C   UNL     1      -1.028   0.166  -0.582  0.00  0.00    +0.000 C 
ATOM      7  O   UNL     1      -0.913  -1.056  -0.359  0.00  0.00    +0.000 OA
ATOM      8  N   UNL     1       0.082   0.918  -1.025  0.00  0.00    +0.000 NA
ENDROOT
BRANCH   1   9
ATOM      9  C   UNL     1      -3.372  -1.149   0.627  0.00  0.00    +0.000 C 
ATOM     10  O   UNL     1      -2.535  -1.183   1.713  0.00  0.00    +0.000 OA
ENDBRANCH   1   9
BRANCH   1  11
ATOM     11  C   UNL     1      -4.479   0.249  -1.111  0.00  0.00    +0.000 C 
BRANCH  11  13
ATOM     12  C   UNL     1      -6.711  -0.177  -2.005  0.00  0.00    +0.000 C 
ATOM     13  C   UNL     1      -5.861  -0.234  -0.750  0.00  0.00    +0.000 C 
ENDBRANCH  11  13
ENDBRANCH   1  11
BRANCH   8  14
ATOM     14  C   UNL     1       1.394   0.339  -1.246  0.00  0.00    +0.000 C 
BRANCH  14  15
ATOM     15  C   UNL     1       1.869  -0.253   0.087  0.00  0.00    +0.000 C 
BRANCH  15  16
ATOM     16  C   UNL     1       3.209  -0.853  -0.104  0.00  0.00    +0.000 A 
ATOM     17  N   UNL     1       3.490  -2.102  -0.458  0.00  0.00    +0.000 NA
ATOM     18  N   UNL     1       4.814  -2.237  -0.519  0.00  0.00    +0.000 NA
ATOM     19  C   UNL     1       5.349  -1.034  -0.193  0.00  0.00    +0.000 A 
ATOM     20  S   UNL     1       7.092  -0.702  -0.131  0.00  0.00    +0.000 S 
ATOM     21  N   UNL     1       4.358  -0.190   0.060  0.00  0.00    +0.000 N 
BRANCH  21  22
ATOM     22  C   UNL     1       4.490   1.208   0.447  0.00  0.00    +0.000 C 
ATOM     23  C   UNL     1       4.556   1.251   1.976  0.00  0.00    +0.000 C 
ENDBRANCH  21  22
ENDBRANCH  15  16
ENDBRANCH  14  15
ENDBRANCH   8  14
TORSDOF 7
