REMARK  Name = 
REMARK  7 active torsions:
REMARK  status: ('A' for Active; 'I' for Inactive)
REMARK    1  A    between atoms: N_4  and  C_5
REMARK    2  A    between atoms: C_15  and  C_17
REMARK    3  A    between atoms: C_17  and  C_19
REMARK    4  A    between atoms: C_19  and  C_20
REMARK    5  A    between atoms: C_20  and  C_21
REMARK    6  A    between atoms: C_21  and  C_22
REMARK    7  A    between atoms: C_22  and  C_23
REMARK                            x       y       z     vdW  Elec       q    Type
REMARK                         _______ _______ _______ _____ _____    ______ ____
ROOT
ATOM      1  C   UNL     1       0.945   2.145   1.557  0.00  0.00    +0.000 C 
ATOM      2  C   UNL     1      -0.251   1.032   1.793  0.00  0.00    +0.000 C 
ATOM      3  C   UNL     1      -0.603   0.935   0.178  0.00  0.00    +0.000 C 
ATOM      4  N   UNL     1      -1.430  -0.243   0.030  0.00  0.00    +0.000 N 
ATOM      5  C   UNL     1      -0.893  -1.521   0.437  0.00  0.00    +0.000 C 
ATOM      6  C   UNL     1      -0.226  -1.413   1.775  0.00  0.00    +0.000 C 
ATOM      7  N   UNL     1       0.645  -0.240   1.788  0.00  0.00    +0.000 N 
ATOM      8  C   UNL     1       1.994  -0.267   1.814  0.00  0.00    +0.000 C 
ATOM      9  O   UNL     1       2.682   0.788   1.812  0.00  0.00    +0.000 OA
ENDROOT
BRANCH   4  10
ATOM     10  C   UNL     1      -2.736  -0.104  -0.510  0.00  0.00    +0.000 A 
ATOM     11  C   UNL     1      -3.502  -1.221  -0.643  0.00  0.00    +0.000 A 
ATOM     12  C   UNL     1      -4.793  -1.153  -1.166  0.00  0.00    +0.000 A 
ATOM     13  C   UNL     1      -5.303   0.056  -1.553  0.00  0.00    +0.000 A 
ATOM     14  C   UNL     1      -4.532   1.189  -1.421  0.00  0.00    +0.000 A 
ATOM     15 CL   UNL     1      -5.119   2.768  -1.895  0.00  0.00    +0.000 Cl
ATOM     16  C   UNL     1      -3.257   1.105  -0.902  0.00  0.00    +0.000 A 
ENDBRANCH   4  10
BRANCH   8  17
ATOM     17  C   UNL     1       2.829  -1.622   1.851  0.00  0.00    +0.000 C 
ATOM     18  N   UNL     1       1.644  -2.533   2.397  0.00  0.00    +0.000 NA
BRANCH  17  19
ATOM     19  C   UNL     1       2.603  -2.138   0.326  0.00  0.00    +0.000 C 
BRANCH  19  20
ATOM     20  C   UNL     1       3.136  -1.194  -0.648  0.00  0.00    +0.000 C 
BRANCH  20  21
ATOM     21  C   UNL     1       2.550   0.173  -0.702  0.00  0.00    +0.000 C 
BRANCH  21  22
ATOM     22  C   UNL     1       3.215   1.010  -1.758  0.00  0.00    +0.000 C 
BRANCH  22  23
ATOM     23  C   UNL     1       4.640   1.158  -1.509  0.00  0.00    +0.000 C 
ATOM     24  N   UNL     1       5.762   1.289  -1.313  0.00  0.00    +0.000 NA
ENDBRANCH  22  23
ENDBRANCH  21  22
ENDBRANCH  20  21
ENDBRANCH  19  20
ENDBRANCH  17  19
ENDBRANCH   8  17
TORSDOF 7
