REMARK  Name = 
REMARK  3 active torsions:
REMARK  status: ('A' for Active; 'I' for Inactive)
REMARK    1  A    between atoms: N_3  and  C_4
REMARK    2  A    between atoms: C_4  and  C_5
REMARK    3  A    between atoms: N_12  and  C_13
REMARK                            x       y       z     vdW  Elec       q    Type
REMARK                         _______ _______ _______ _____ _____    ______ ____
ROOT
ATOM      1  O   UNL     1      -0.496  -0.915  -0.407  0.00  0.00    +0.000 OA
ATOM      2  C   UNL     1      -0.682   0.289  -0.104  0.00  0.00    +0.000 C 
ATOM      3  N   UNL     1      -0.051   1.309  -0.845  0.00  0.00    +0.000 NA
ATOM      4  N   UNL     1      -1.544   0.457   0.996  0.00  0.00    +0.000 NA
ENDROOT
BRANCH   4   5
ATOM      5  C   UNL     1      -2.153  -0.833   1.693  0.00  0.00    +0.000 C 
ATOM      6  C   UNL     1      -2.802  -1.556   0.371  0.00  0.00    +0.000 C 
ATOM      7  C   UNL     1      -3.723  -0.645   1.417  0.00  0.00    +0.000 C 
ATOM      8  C   UNL     1      -4.795  -1.290   0.874  0.00  0.00    +0.000 C 
ATOM      9  C   UNL     1      -5.224  -0.016   0.108  0.00  0.00    +0.000 C 
ATOM     10  C   UNL     1      -4.227   0.631   1.038  0.00  0.00    +0.000 C 
ENDBRANCH   4   5
BRANCH   3  11
ATOM     11  C   UNL     1       0.800   0.878  -1.944  0.00  0.00    +0.000 C 
BRANCH  11  12
ATOM     12  C   UNL     1       2.062   0.382  -1.268  0.00  0.00    +0.000 A 
ATOM     13  C   UNL     1       2.208  -0.948  -0.946  0.00  0.00    +0.000 A 
ATOM     14  C   UNL     1       3.352  -1.395  -0.331  0.00  0.00    +0.000 A 
ATOM     15  C   UNL     1       4.356  -0.502  -0.036  0.00  0.00    +0.000 A 
ATOM     16  C   UNL     1       4.221   0.818  -0.352  0.00  0.00    +0.000 A 
ATOM     17 BR   UNL     1       5.621   2.068   0.061  0.00  0.00    +0.000 Br
ATOM     18  C   UNL     1       3.075   1.266  -0.969  0.00  0.00    +0.000 A 
ENDBRANCH  11  12
ENDBRANCH   3  11
TORSDOF 3
