REMARK  Name = 
REMARK  4 active torsions:
REMARK  status: ('A' for Active; 'I' for Inactive)
REMARK    1  A    between atoms: C_6  and  N_7
REMARK    2  A    between atoms: C_8  and  C_10
REMARK    3  A    between atoms: C_10  and  N_11
REMARK    4  A    between atoms: N_15  and  C_16
REMARK                            x       y       z     vdW  Elec       q    Type
REMARK                         _______ _______ _______ _____ _____    ______ ____
ROOT
ATOM      1  N   UNL     1       1.315  -0.742  -0.093  0.00  0.00    +0.000 NA
ATOM      2  C   UNL     1       0.968  -1.977   0.490  0.00  0.00    +0.000 C 
ATOM      3  O   UNL     1       1.819  -2.565   1.196  0.00  0.00    +0.000 OA
ENDROOT
BRANCH   1   9
ATOM      4  C   UNL     1       6.469   1.315   0.890  0.00  0.00    +0.000 C 
ATOM      5  C   UNL     1       5.122   0.728   0.567  0.00  0.00    +0.000 A 
ATOM      6  C   UNL     1       4.118   1.111   1.464  0.00  0.00    +0.000 A 
ATOM      7  C   UNL     1       2.855   0.613   1.232  0.00  0.00    +0.000 A 
ATOM      8  C   UNL     1       1.713   0.948   2.108  0.00  0.00    +0.000 C 
ATOM      9  C   UNL     1       2.615  -0.227   0.153  0.00  0.00    +0.000 A 
ATOM     10  C   UNL     1       3.613  -0.596  -0.724  0.00  0.00    +0.000 A 
ATOM     11  C   UNL     1       3.331  -1.502  -1.879  0.00  0.00    +0.000 C 
ATOM     12  C   UNL     1       4.898  -0.097  -0.497  0.00  0.00    +0.000 A 
ENDBRANCH   1   9
BRANCH   2  13
ATOM     13  C   UNL     1      -0.389  -2.514   0.235  0.00  0.00    +0.000 C 
BRANCH  13  14
ATOM     14  N   UNL     1      -1.147  -1.630  -0.600  0.00  0.00    +0.000 N 
ATOM     15  C   UNL     1      -1.080  -1.811  -2.034  0.00  0.00    +0.000 C 
ATOM     16  C   UNL     1      -1.971  -0.577  -0.122  0.00  0.00    +0.000 C 
ATOM     17  O   UNL     1      -2.091  -0.351   1.142  0.00  0.00    +0.000 OA
ATOM     18  N   UNL     1      -2.673   0.247  -0.949  0.00  0.00    +0.000 NA
BRANCH  18  19
ATOM     19  C   UNL     1      -3.569   1.397  -0.360  0.00  0.00    +0.000 C 
ATOM     20  C   UNL     1      -4.601   0.384   0.400  0.00  0.00    +0.000 C 
ATOM     21  C   UNL     1      -5.862   1.053   0.402  0.00  0.00    +0.000 C 
ATOM     22  C   UNL     1      -5.842   2.155  -0.818  0.00  0.00    +0.000 C 
ATOM     23  F   UNL     1      -5.020   3.177  -0.076  0.00  0.00    +0.000 F 
ATOM     24  C   UNL     1      -4.590   1.462  -1.636  0.00  0.00    +0.000 C 
ENDBRANCH  18  19
ENDBRANCH  13  14
ENDBRANCH   2  13
TORSDOF 4
