REMARK  Name = 
REMARK  4 active torsions:
REMARK  status: ('A' for Active; 'I' for Inactive)
REMARK    1  A    between atoms: O_2  and  C_3
REMARK    2  A    between atoms: C_3  and  C_5
REMARK    3  A    between atoms: C_11  and  S_12
REMARK    4  A    between atoms: S_12  and  N_15
REMARK                            x       y       z     vdW  Elec       q    Type
REMARK                         _______ _______ _______ _____ _____    ______ ____
ROOT
ATOM      1  C   UNL     1      -2.840   0.599  -0.129  0.00  0.00    +0.000 A 
ATOM      2  C   UNL     1      -3.360  -0.566  -0.615  0.00  0.00    +0.000 A 
ATOM      3  C   UNL     1      -2.638  -1.765  -0.580  0.00  0.00    +0.000 A 
ATOM      4  C   UNL     1      -3.193  -3.031  -1.104  0.00  0.00    +0.000 C 
ATOM      5  C   UNL     1      -1.377  -1.757  -0.042  0.00  0.00    +0.000 A 
ATOM      6  F   UNL     1      -0.612  -2.896   0.025  0.00  0.00    +0.000 F 
ATOM      7  C   UNL     1      -0.818  -0.619   0.455  0.00  0.00    +0.000 A 
ATOM      8  C   UNL     1      -1.569   0.550   0.402  0.00  0.00    +0.000 A 
ENDROOT
BRANCH   7   9
ATOM      9  S   UNL     1       0.766  -0.518   1.152  0.00  0.00    +0.000 S 
ATOM     10  O   UNL     1       1.047   0.860   1.680  0.00  0.00    +0.000 OA
ATOM     11  O   UNL     1       0.762  -1.425   2.358  0.00  0.00    +0.000 OA
BRANCH   9  12
ATOM     12  N   UNL     1       2.013  -0.974   0.045  0.00  0.00    +0.000 NA
ATOM     13  C   UNL     1       2.103  -0.192  -1.078  0.00  0.00    +0.000 C 
ATOM     14  C   UNL     1       1.620   1.224  -1.000  0.00  0.00    +0.000 C 
ATOM     15  C   UNL     1       2.643   2.039  -0.228  0.00  0.00    +0.000 C 
ATOM     16  N   UNL     1       3.890   1.305  -0.184  0.00  0.00    +0.000 NA
ATOM     17  C   UNL     1       4.218  -0.010   0.100  0.00  0.00    +0.000 C 
ATOM     18  O   UNL     1       5.272  -0.477  -0.290  0.00  0.00    +0.000 OA
ATOM     19  C   UNL     1       3.315  -0.988   0.914  0.00  0.00    +0.000 C 
ATOM     20  C   UNL     1       3.874  -2.377   0.235  0.00  0.00    +0.000 C 
ENDBRANCH   9  12
ENDBRANCH   7   9
BRANCH   1  21
ATOM     21  C   UNL     1      -3.585   1.853  -0.161  0.00  0.00    +0.000 C 
ATOM     22  O   UNL     1      -4.739   1.913  -0.638  0.00  0.00    +0.000 OA
BRANCH  21  24
ATOM     23  C   UNL     1      -3.753   4.233   0.309  0.00  0.00    +0.000 C 
ATOM     24  O   UNL     1      -3.038   3.021   0.338  0.00  0.00    +0.000 OA
ENDBRANCH  21  24
ENDBRANCH   1  21
TORSDOF 4
