REMARK  Name = 
REMARK  3 active torsions:
REMARK  status: ('A' for Active; 'I' for Inactive)
REMARK    1  A    between atoms: C_5  and  N_6
REMARK    2  A    between atoms: N_6  and  C_7
REMARK    3  A    between atoms: C_10  and  C_11
REMARK                            x       y       z     vdW  Elec       q    Type
REMARK                         _______ _______ _______ _____ _____    ______ ____
ROOT
ATOM      1  C   UNL     1      -0.575  -2.232   2.422  0.00  0.00    +0.000 C 
ATOM      2  C   UNL     1      -1.035  -1.363   1.270  0.00  0.00    +0.000 C 
ATOM      3  C   UNL     1      -1.673  -2.252   0.266  0.00  0.00    +0.000 C 
ATOM      4  C   UNL     1       0.136  -0.568   0.891  0.00  0.00    +0.000 C 
ATOM      5  C   UNL     1      -0.245   0.406  -0.362  0.00  0.00    +0.000 C 
ATOM      6  C   UNL     1      -1.717   0.802  -0.088  0.00  0.00    +0.000 A 
ATOM      7  C   UNL     1      -2.209   1.681  -1.035  0.00  0.00    +0.000 A 
ATOM      8  C   UNL     1      -3.501   2.180  -0.952  0.00  0.00    +0.000 A 
ATOM      9  N   UNL     1      -4.030   3.095  -1.918  0.00  0.00    +0.000 NA
ATOM     10  C   UNL     1      -4.330   1.791   0.104  0.00  0.00    +0.000 A 
ATOM     11  C   UNL     1      -3.818   0.909   1.044  0.00  0.00    +0.000 A 
ATOM     12  C   UNL     1      -2.489   0.426   0.918  0.00  0.00    +0.000 A 
ATOM     13  O   UNL     1      -1.977  -0.450   1.852  0.00  0.00    +0.000 OA
ENDROOT
BRANCH   5  14
ATOM     14  N   UNL     1      -0.491  -0.784  -1.366  0.00  0.00    +0.000 NA
BRANCH  14  15
ATOM     15  C   UNL     1       0.878  -1.254  -1.560  0.00  0.00    +0.000 C 
ATOM     16  C   UNL     1       1.695  -0.204  -2.274  0.00  0.00    +0.000 C 
ATOM     17  C   UNL     1       3.128  -0.128  -1.893  0.00  0.00    +0.000 C 
ATOM     18  C   UNL     1       3.164  -0.031  -0.377  0.00  0.00    +0.000 C 
ATOM     19  C   UNL     1       2.762  -1.373   0.145  0.00  0.00    +0.000 C 
ATOM     20  C   UNL     1       1.527  -1.927  -0.455  0.00  0.00    +0.000 C 
BRANCH  18  21
ATOM     21  C   UNL     1       4.506   0.316   0.096  0.00  0.00    +0.000 C 
ATOM     22  O   UNL     1       4.649   1.414   0.725  0.00  0.00    +0.000 OA
ATOM     23  O   UNL     1       5.644  -0.453  -0.086  0.00  0.00    +0.000 OA
ENDBRANCH  18  21
ENDBRANCH  14  15
ENDBRANCH   5  14
TORSDOF 3
