REMARK  Name = 
REMARK  4 active torsions:
REMARK  status: ('A' for Active; 'I' for Inactive)
REMARK    1  A    between atoms: N_12  and  C_13
REMARK    2  A    between atoms: C_13  and  C_14
REMARK    3  A    between atoms: C_18  and  C_19
REMARK    4  A    between atoms: C_22  and  C_23
REMARK                            x       y       z     vdW  Elec       q    Type
REMARK                         _______ _______ _______ _____ _____    ______ ____
ROOT
ATOM      1  C   UNL     1      -0.057  -0.280   0.727  0.00  0.00    +0.000 C 
ENDROOT
BRANCH   1  13
ATOM      2  C   UNL     1       1.007   1.669   2.392  0.00  0.00    +0.000 C 
ATOM      3  C   UNL     1       1.893   0.778   1.578  0.00  0.00    +0.000 A 
ATOM      4  N   UNL     1       3.233   0.886   1.622  0.00  0.00    +0.000 NA
ATOM      5  C   UNL     1       4.058   0.096   0.899  0.00  0.00    +0.000 A 
ATOM      6  C   UNL     1       5.430   0.217   0.954  0.00  0.00    +0.000 A 
ATOM      7  C   UNL     1       6.261  -0.596   0.211  0.00  0.00    +0.000 A 
ATOM      8  C   UNL     1       5.753  -1.572  -0.624  0.00  0.00    +0.000 A 
ATOM      9  C   UNL     1       4.378  -1.686  -0.672  0.00  0.00    +0.000 A 
ATOM     10  C   UNL     1       3.544  -0.877   0.067  0.00  0.00    +0.000 A 
ATOM     11  C   UNL     1       2.171  -0.988   0.023  0.00  0.00    +0.000 A 
ATOM     12  O   UNL     1       1.650  -1.864  -0.724  0.00  0.00    +0.000 OA
ATOM     13  N   UNL     1       1.387  -0.169   0.768  0.00  0.00    +0.000 N 
ENDBRANCH   1  13
BRANCH   1  14
ATOM     14  C   UNL     1      -0.647   0.586  -0.326  0.00  0.00    +0.000 C 
ATOM     15  O   UNL     1       0.152   1.270  -1.012  0.00  0.00    +0.000 OA
ATOM     16  N   UNL     1      -2.009   0.679  -0.590  0.00  0.00    +0.000 N 
ATOM     17  C   UNL     1      -2.984   1.345  -1.461  0.00  0.00    +0.000 C 
ATOM     18  C   UNL     1      -3.977   1.387  -0.170  0.00  0.00    +0.000 C 
ATOM     19  C   UNL     1      -3.198  -0.096   0.154  0.00  0.00    +0.000 C 
BRANCH  18  20
ATOM     20  C   UNL     1      -5.274   0.895  -1.005  0.00  0.00    +0.000 C 
ATOM     21  C   UNL     1      -5.499   1.935  -2.093  0.00  0.00    +0.000 C 
ATOM     22  C   UNL     1      -6.379   1.033   0.004  0.00  0.00    +0.000 C 
ENDBRANCH  18  20
BRANCH  19  23
ATOM     23  C   UNL     1      -3.644  -0.961  -1.177  0.00  0.00    +0.000 C 
ATOM     24  C   UNL     1      -4.793  -1.788  -0.675  0.00  0.00    +0.000 C 
ATOM     25  C   UNL     1      -2.457  -1.901  -1.391  0.00  0.00    +0.000 C 
ENDBRANCH  19  23
ENDBRANCH   1  14
TORSDOF 4
