REMARK  Name = 
REMARK  8 active torsions:
REMARK  status: ('A' for Active; 'I' for Inactive)
REMARK    1  A    between atoms: C_2  and  C_3
REMARK    2  A    between atoms: C_2  and  N_17
REMARK    3  A    between atoms: C_3  and  N_4
REMARK    4  A    between atoms: C_5  and  C_7
REMARK    5  A    between atoms: C_7  and  C_9
REMARK    6  A    between atoms: C_9  and  C_10
REMARK    7  A    between atoms: C_18  and  O_20
REMARK    8  A    between atoms: O_20  and  C_21
REMARK                            x       y       z     vdW  Elec       q    Type
REMARK                         _______ _______ _______ _____ _____    ______ ____
ROOT
ATOM      1  N   UNL     1      -0.753  -1.274   0.567  0.00  0.00    +0.000 NA
ATOM      2  C   UNL     1      -1.263  -2.151  -0.390  0.00  0.00    +0.000 C 
ATOM      3  O   UNL     1      -0.617  -2.737  -1.244  0.00  0.00    +0.000 OA
ENDROOT
BRANCH   2   4
ATOM      4  C   UNL     1      -2.857  -2.388  -0.328  0.00  0.00    +0.000 C 
ATOM      5  C   UNL     1      -2.910  -3.550  -1.483  0.00  0.00    +0.000 C 
BRANCH   4   6
ATOM      6  C   UNL     1      -3.241  -1.178  -1.363  0.00  0.00    +0.000 C 
BRANCH   6   7
ATOM      7  C   UNL     1      -2.748   0.078  -0.734  0.00  0.00    +0.000 A 
ATOM      8  C   UNL     1      -1.640   0.725  -1.186  0.00  0.00    +0.000 A 
ATOM      9  C   UNL     1      -1.282   1.904  -0.522  0.00  0.00    +0.000 A 
ATOM     10  C   UNL     1      -2.003   2.404   0.540  0.00  0.00    +0.000 A 
ATOM     11  C   UNL     1      -3.117   1.705   0.951  0.00  0.00    +0.000 A 
ATOM     12  C   UNL     1      -3.522   0.539   0.343  0.00  0.00    +0.000 A 
ATOM     13  F   UNL     1      -4.616  -0.148   0.750  0.00  0.00    +0.000 F 
ENDBRANCH   6   7
ENDBRANCH   4   6
ENDBRANCH   2   4
BRANCH   1  14
ATOM     14  C   UNL     1       0.519  -0.890   0.784  0.00  0.00    +0.000 C 
BRANCH  14  16
ATOM     15  C   UNL     1       1.540  -2.978  -0.006  0.00  0.00    +0.000 C 
ATOM     16  C   UNL     1       1.595  -1.962   1.262  0.00  0.00    +0.000 C 
BRANCH  16  17
ATOM     17  N   UNL     1       2.869  -1.205   0.730  0.00  0.00    +0.000 NA
ATOM     18  C   UNL     1       2.899   0.188   0.861  0.00  0.00    +0.000 C 
ATOM     19  O   UNL     1       1.909   0.756   1.395  0.00  0.00    +0.000 OA
BRANCH  18  20
ATOM     20  O   UNL     1       3.943   1.003   0.442  0.00  0.00    +0.000 OA
BRANCH  20  21
ATOM     21  C   UNL     1       3.847   2.405   0.627  0.00  0.00    +0.000 C 
ATOM     22  C   UNL     1       2.644   2.943  -0.111  0.00  0.00    +0.000 C 
ATOM     23  C   UNL     1       5.087   3.043   0.029  0.00  0.00    +0.000 C 
ATOM     24  C   UNL     1       3.718   2.769   2.080  0.00  0.00    +0.000 C 
ENDBRANCH  20  21
ENDBRANCH  18  20
ENDBRANCH  16  17
ENDBRANCH  14  16
ENDBRANCH   1  14
TORSDOF 8
