REMARK  Name = 
REMARK  6 active torsions:
REMARK  status: ('A' for Active; 'I' for Inactive)
REMARK    1  A    between atoms: C_2  and  C_3
REMARK    2  A    between atoms: C_6  and  N_7
REMARK    3  A    between atoms: N_10  and  C_11
REMARK    4  A    between atoms: C_11  and  C_12
REMARK    5  A    between atoms: N_15  and  C_16
REMARK    6  A    between atoms: C_16  and  C_17
REMARK                            x       y       z     vdW  Elec       q    Type
REMARK                         _______ _______ _______ _____ _____    ______ ____
ROOT
ATOM      1  N   UNL     1      -1.500  -0.402  -1.061  0.00  0.00    +0.000 NA
ATOM      2  C   UNL     1      -1.027   0.370   0.036  0.00  0.00    +0.000 C 
ATOM      3  O   UNL     1      -1.854   0.999   0.755  0.00  0.00    +0.000 OA
ATOM      4  N   UNL     1       0.334   0.489   0.390  0.00  0.00    +0.000 NA
ENDROOT
BRANCH   1   8
ATOM      5  C   UNL     1      -5.692  -0.475  -1.762  0.00  0.00    +0.000 A 
ATOM      6  C   UNL     1      -4.811  -1.177  -2.571  0.00  0.00    +0.000 A 
ATOM      7  C   UNL     1      -3.446  -1.169  -2.364  0.00  0.00    +0.000 A 
ATOM      8  C   UNL     1      -2.919  -0.444  -1.321  0.00  0.00    +0.000 A 
ATOM      9  N   UNL     1      -3.786   0.231  -0.547  0.00  0.00    +0.000 NA
ATOM     10  C   UNL     1      -5.120   0.239  -0.729  0.00  0.00    +0.000 A 
BRANCH   5  12
ATOM     11  C   UNL     1      -7.552   0.635  -2.954  0.00  0.00    +0.000 C 
ATOM     12  C   UNL     1      -7.161  -0.500  -2.008  0.00  0.00    +0.000 C 
ENDBRANCH   5  12
ENDBRANCH   1   8
BRANCH   4  13
ATOM     13  C   UNL     1       0.760   1.306   1.540  0.00  0.00    +0.000 C 
BRANCH  13  14
ATOM     14  C   UNL     1       2.414   1.110   1.518  0.00  0.00    +0.000 C 
ATOM     15  C   UNL     1       2.647   2.079   2.843  0.00  0.00    +0.000 C 
ATOM     16  C   UNL     1       3.354   0.785   3.247  0.00  0.00    +0.000 C 
ATOM     17  N   UNL     1       2.401  -0.059   2.569  0.00  0.00    +0.000 NA
BRANCH  17  18
ATOM     18  C   UNL     1       2.986  -1.226   1.967  0.00  0.00    +0.000 C 
BRANCH  18  19
ATOM     19  C   UNL     1       4.025  -0.805   1.006  0.00  0.00    +0.000 A 
ATOM     20  C   UNL     1       4.446  -1.767   0.094  0.00  0.00    +0.000 A 
ATOM     21  C   UNL     1       5.417  -1.480  -0.839  0.00  0.00    +0.000 A 
ATOM     22  C   UNL     1       5.959  -0.222  -0.846  0.00  0.00    +0.000 A 
ATOM     23  C   UNL     1       5.545   0.735   0.056  0.00  0.00    +0.000 A 
ATOM     24  C   UNL     1       4.580   0.448   0.982  0.00  0.00    +0.000 A 
ENDBRANCH  18  19
ENDBRANCH  17  18
ENDBRANCH  13  14
ENDBRANCH   4  13
TORSDOF 6
