REMARK  Name = 
REMARK  2 active torsions:
REMARK  status: ('A' for Active; 'I' for Inactive)
REMARK    1  A    between atoms: N_2  and  C_15
REMARK    2  A    between atoms: N_5  and  C_6
REMARK                            x       y       z     vdW  Elec       q    Type
REMARK                         _______ _______ _______ _____ _____    ______ ____
ROOT
ATOM      1  C   UNL     1       1.396  -2.041   0.900  0.00  0.00    +0.000 C 
ATOM      2  N   UNL     1       1.363  -0.713   0.531  0.00  0.00    +0.000 N 
ATOM      3  C   UNL     1       0.112  -0.013   0.414  0.00  0.00    +0.000 C 
ATOM      4  O   UNL     1       0.032   1.210   0.080  0.00  0.00    +0.000 OA
ATOM      5  N   UNL     1      -1.124  -0.646   0.665  0.00  0.00    +0.000 NA
ENDROOT
BRANCH   5   6
ATOM      6  C   UNL     1      -2.352   0.052   0.545  0.00  0.00    +0.000 A 
ATOM      7  C   UNL     1      -2.334   1.375   0.178  0.00  0.00    +0.000 A 
ATOM      8  C   UNL     1      -3.484   2.099   0.048  0.00  0.00    +0.000 A 
ATOM      9  C   UNL     1      -4.676   1.434   0.305  0.00  0.00    +0.000 A 
ATOM     10  C   UNL     1      -4.734   0.095   0.679  0.00  0.00    +0.000 A 
ATOM     11  N   UNL     1      -5.855  -0.573   0.934  0.00  0.00    +0.000 NA
ATOM     12  S   UNL     1      -5.367  -2.143   1.340  0.00  0.00    +0.000 S 
ATOM     13  N   UNL     1      -3.701  -1.876   1.163  0.00  0.00    +0.000 NA
ATOM     14  C   UNL     1      -3.584  -0.578   0.795  0.00  0.00    +0.000 A 
ENDBRANCH   5   6
BRANCH   2  15
ATOM     15  C   UNL     1       2.579   0.182   0.204  0.00  0.00    +0.000 C 
ATOM     16  C   UNL     1       3.740  -0.816   0.754  0.00  0.00    +0.000 C 
ATOM     17  C   UNL     1       4.970   0.020   0.461  0.00  0.00    +0.000 C 
ATOM     18  N   UNL     1       4.970   0.190  -0.940  0.00  0.00    +0.000 NA
ATOM     19  C   UNL     1       4.819   1.522  -1.462  0.00  0.00    +0.000 C 
ATOM     20  C   UNL     1       3.826   1.268  -2.626  0.00  0.00    +0.000 C 
ATOM     21  O   UNL     1       2.652   1.064  -1.945  0.00  0.00    +0.000 OA
ATOM     22  C   UNL     1       2.587  -0.360  -1.468  0.00  0.00    +0.000 C 
ATOM     23  C   UNL     1       4.165  -0.751  -1.554  0.00  0.00    +0.000 C 
ENDBRANCH   2  15
TORSDOF 2
