REMARK  Name = 
REMARK  9 active torsions:
REMARK  status: ('A' for Active; 'I' for Inactive)
REMARK    1  A    between atoms: O_2  and  C_3
REMARK    2  A    between atoms: C_3  and  C_4
REMARK    3  A    between atoms: C_3  and  C_11
REMARK    4  A    between atoms: C_11  and  N_13
REMARK    5  A    between atoms: N_16  and  C_18
REMARK    6  A    between atoms: C_18  and  C_19
REMARK    7  A    between atoms: C_19  and  C_20
REMARK    8  A    between atoms: C_20  and  O_21
REMARK    9  A    between atoms: O_21  and  C_22
REMARK                            x       y       z     vdW  Elec       q    Type
REMARK                         _______ _______ _______ _____ _____    ______ ____
ROOT
ATOM      1  C   UNL     1      -0.385  -0.088  -1.832  0.00  0.00    +0.000 C 
ATOM      2  C   UNL     1      -1.035  -1.592  -1.865  0.00  0.00    +0.000 C 
ENDROOT
BRANCH   1   3
ATOM      3  N   UNL     1      -0.425   0.057  -0.305  0.00  0.00    +0.000 NA
ATOM      4  C   UNL     1       0.721  -0.469   0.350  0.00  0.00    +0.000 C 
ATOM      5  O   UNL     1       1.582  -0.967  -0.417  0.00  0.00    +0.000 OA
ATOM      6  N   UNL     1       0.914  -0.453   1.760  0.00  0.00    +0.000 N 
ATOM      7  C   UNL     1      -0.029   0.072   2.724  0.00  0.00    +0.000 C 
BRANCH   6   8
ATOM      8  C   UNL     1       2.130  -0.969   2.299  0.00  0.00    +0.000 C 
BRANCH   8   9
ATOM      9  C   UNL     1       3.245  -0.045   2.526  0.00  0.00    +0.000 C 
BRANCH   9  10
ATOM     10  C   UNL     1       3.818   0.682   1.355  0.00  0.00    +0.000 C 
BRANCH  10  11
ATOM     11  O   UNL     1       4.366  -0.092   0.368  0.00  0.00    +0.000 OA
BRANCH  11  12
ATOM     12  C   UNL     1       5.409  -0.837   0.921  0.00  0.00    +0.000 C 
ATOM     13  C   UNL     1       6.471   0.083   1.494  0.00  0.00    +0.000 C 
ATOM     14  C   UNL     1       6.034  -1.623  -0.207  0.00  0.00    +0.000 C 
ENDBRANCH  11  12
ENDBRANCH  10  11
ENDBRANCH   9  10
ENDBRANCH   8   9
ENDBRANCH   6   8
ENDBRANCH   1   3
BRANCH   1  15
ATOM     15  C   UNL     1      -1.826   0.753  -2.220  0.00  0.00    +0.000 C 
BRANCH  15  16
ATOM     16  C   UNL     1      -2.776   0.159  -1.120  0.00  0.00    +0.000 A 
ATOM     17  C   UNL     1      -2.460  -0.610  -0.104  0.00  0.00    +0.000 A 
ATOM     18  C   UNL     1      -3.434  -1.038   0.760  0.00  0.00    +0.000 A 
ATOM     19  C   UNL     1      -4.751  -0.671   0.578  0.00  0.00    +0.000 A 
ATOM     20  C   UNL     1      -5.079   0.134  -0.488  0.00  0.00    +0.000 A 
ATOM     21  C   UNL     1      -4.075   0.544  -1.335  0.00  0.00    +0.000 A 
ATOM     22  F   UNL     1      -4.467   1.329  -2.386  0.00  0.00    +0.000 F 
ENDBRANCH  15  16
BRANCH  15  24
ATOM     23  C   UNL     1      -2.524   2.786  -1.305  0.00  0.00    +0.000 C 
ATOM     24  O   UNL     1      -1.423   2.030  -1.551  0.00  0.00    +0.000 OA
ENDBRANCH  15  24
ENDBRANCH   1  15
TORSDOF 9
