REMARK  Name = ZINC000002443590_2
REMARK  5 active torsions:
REMARK  status: ('A' for Active; 'I' for Inactive)
REMARK    1  A    between atoms: C_1  and  C_2
REMARK    2  A    between atoms: C_5  and  C_7
REMARK    3  A    between atoms: N_8  and  N_9
REMARK    4  A    between atoms: C_10  and  C_12
REMARK    5  A    between atoms: C_14  and  C_17
REMARK                            x       y       z     vdW  Elec       q    Type
REMARK                         _______ _______ _______ _____ _____    ______ ____
ROOT
ATOM      1  N   UNL     1      -0.590   0.064   0.551  0.00  0.00    +0.000 N 
ATOM      2  C   UNL     1      -1.652  -0.126  -0.390  0.00  0.00    +0.000 C 
ATOM      3  O   UNL     1      -1.384  -0.426  -1.585  0.00  0.00    +0.000 OA
ATOM      4  H   UNL     1      -0.814   0.313   1.542  0.00  0.00    +0.000 HD
ENDROOT
BRANCH   2   5
ATOM      5  C   UNL     1      -3.056   0.025   0.025  0.00  0.00    +0.000 A 
ATOM      6  C   UNL     1      -4.164  -0.126  -0.790  0.00  0.00    +0.000 A 
ATOM      7  C   UNL     1      -5.230   0.113   0.051  0.00  0.00    +0.000 A 
ATOM      8  N   UNL     1      -4.767   0.407   1.280  0.00  0.00    +0.000 N 
ATOM      9  N   UNL     1      -3.445   0.350   1.275  0.00  0.00    +0.000 NA
ATOM     10  C   UNL     1      -6.670   0.152  -0.341  0.00  0.00    +0.000 C 
ATOM     11  H   UNL     1      -5.341   0.652   2.116  0.00  0.00    +0.000 HD
ENDBRANCH   2   5
BRANCH   1  13
ATOM     12  C   UNL     1       1.731   0.082   0.969  0.00  0.00    +0.000 C 
ATOM     13  N   UNL     1       0.745  -0.082   0.144  0.00  0.00    +0.000 NA
BRANCH  12  18
ATOM     14  C   UNL     1       6.324  -0.656  -1.742  0.00  0.00    +0.000 C 
ATOM     15  C   UNL     1       5.247  -0.457  -0.729  0.00  0.00    +0.000 A 
ATOM     16  C   UNL     1       5.442  -0.123   0.606  0.00  0.00    +0.000 A 
ATOM     17  C   UNL     1       4.245   0.080   1.304  0.00  0.00    +0.000 A 
ATOM     18  C   UNL     1       3.115  -0.079   0.511  0.00  0.00    +0.000 A 
ATOM     19  S   UNL     1       3.596  -0.467  -1.056  0.00  0.00    +0.000 S 
ENDBRANCH  12  18
ENDBRANCH   1  13
TORSDOF 3
