MODEL 1
REMARK VINA RESULT:      -4.5      0.000      0.000
REMARK  Name = ZINC000002443590_1
REMARK  5 active torsions:
REMARK  status: ('A' for Active; 'I' for Inactive)
REMARK    1  A    between atoms: C_1  and  C_2
REMARK    2  A    between atoms: C_5  and  C_7
REMARK    3  A    between atoms: N_8  and  N_9
REMARK    4  A    between atoms: C_10  and  C_12
REMARK    5  A    between atoms: C_14  and  C_17
REMARK                            x       y       z     vdW  Elec       q    Type
REMARK                         _______ _______ _______ _____ _____    ______ ____
ROOT
ATOM      1  N   UNL     1      -7.788  -1.986   1.197  0.00  0.00    +0.000 N 
ATOM      2  C   UNL     1      -8.441  -1.380   0.076  0.00  0.00    +0.000 C 
ATOM      3  O   UNL     1      -7.814  -0.556  -0.644  0.00  0.00    +0.000 OA
ATOM      4  H   UNL     1      -8.338  -2.615   1.823  0.00  0.00    +0.000 HD
ENDROOT
BRANCH   2   5
ATOM      5  C   UNL     1      -9.836  -1.717  -0.248  0.00  0.00    +0.000 A 
ATOM      6  C   UNL     1     -10.961  -1.084   0.252  0.00  0.00    +0.000 A 
ATOM      7  C   UNL     1     -12.009  -1.752  -0.344  0.00  0.00    +0.000 A 
ATOM      8  N   UNL     1     -11.522  -2.704  -1.158  0.00  0.00    +0.000 N 
ATOM      9  N   UNL     1     -10.200  -2.695  -1.102  0.00  0.00    +0.000 NA
ATOM     10  C   UNL     1     -13.459  -1.418  -0.206  0.00  0.00    +0.000 C 
ATOM     11  H   UNL     1     -12.079  -3.354  -1.757  0.00  0.00    +0.000 HD
ENDBRANCH   2   5
BRANCH   1  13
ATOM     12  C   UNL     1      -5.413  -2.306   1.217  0.00  0.00    +0.000 C 
ATOM     13  N   UNL     1      -6.472  -1.617   1.526  0.00  0.00    +0.000 NA
BRANCH  12  18
ATOM     14  C   UNL     1      -5.418  -7.313  -0.747  0.00  0.00    +0.000 C 
ATOM     15  C   UNL     1      -5.420  -5.836  -0.541  0.00  0.00    +0.000 A 
ATOM     16  C   UNL     1      -5.048  -4.886  -1.484  0.00  0.00    +0.000 A 
ATOM     17  C   UNL     1      -5.047  -3.580  -0.980  0.00  0.00    +0.000 A 
ATOM     18  C   UNL     1      -5.426  -3.505   0.358  0.00  0.00    +0.000 A 
ATOM     19  S   UNL     1      -5.702  -5.063   0.925  0.00  0.00    +0.000 S 
ENDBRANCH  12  18
ENDBRANCH   1  13
TORSDOF 3
ENDMDL
MODEL 2
REMARK VINA RESULT:      -4.3      3.731      4.694
REMARK  Name = ZINC000002443590_1
REMARK  5 active torsions:
REMARK  status: ('A' for Active; 'I' for Inactive)
REMARK    1  A    between atoms: C_1  and  C_2
REMARK    2  A    between atoms: C_5  and  C_7
REMARK    3  A    between atoms: N_8  and  N_9
REMARK    4  A    between atoms: C_10  and  C_12
REMARK    5  A    between atoms: C_14  and  C_17
REMARK                            x       y       z     vdW  Elec       q    Type
REMARK                         _______ _______ _______ _____ _____    ______ ____
ROOT
ATOM      1  N   UNL     1     -12.441  -2.004   1.179  0.00  0.00    +0.000 N 
ATOM      2  C   UNL     1     -13.132  -1.373   0.096  0.00  0.00    +0.000 C 
ATOM      3  O   UNL     1     -12.531  -0.532  -0.626  0.00  0.00    +0.000 OA
ATOM      4  H   UNL     1     -12.968  -2.647   1.810  0.00  0.00    +0.000 HD
ENDROOT
BRANCH   2   5
ATOM      5  C   UNL     1     -14.538  -1.702  -0.186  0.00  0.00    +0.000 A 
ATOM      6  C   UNL     1     -15.644  -1.034   0.312  0.00  0.00    +0.000 A 
ATOM      7  C   UNL     1     -16.713  -1.710  -0.236  0.00  0.00    +0.000 A 
ATOM      8  N   UNL     1     -16.255  -2.700  -1.023  0.00  0.00    +0.000 N 
ATOM      9  N   UNL     1     -14.932  -2.707  -0.994  0.00  0.00    +0.000 NA
ATOM     10  C   UNL     1     -18.155  -1.351  -0.082  0.00  0.00    +0.000 C 
ATOM     11  H   UNL     1     -16.833  -3.364  -1.584  0.00  0.00    +0.000 HD
ENDBRANCH   2   5
BRANCH   1  13
ATOM     12  C   UNL     1     -10.071  -2.364   1.178  0.00  0.00    +0.000 C 
ATOM     13  N   UNL     1     -11.113  -1.642   1.470  0.00  0.00    +0.000 NA
BRANCH  12  18
ATOM     14  C   UNL     1     -10.001  -7.451  -0.564  0.00  0.00    +0.000 C 
ATOM     15  C   UNL     1     -10.075  -5.969  -0.420  0.00  0.00    +0.000 A 
ATOM     16  C   UNL     1      -9.896  -5.046  -1.441  0.00  0.00    +0.000 A 
ATOM     17  C   UNL     1      -9.915  -3.719  -0.996  0.00  0.00    +0.000 A 
ATOM     18  C   UNL     1     -10.117  -3.601   0.378  0.00  0.00    +0.000 A 
ATOM     19  S   UNL     1     -10.211  -5.144   1.039  0.00  0.00    +0.000 S 
ENDBRANCH  12  18
ENDBRANCH   1  13
TORSDOF 3
ENDMDL
MODEL 3
REMARK VINA RESULT:      -4.3      7.243      8.739
REMARK  Name = ZINC000002443590_1
REMARK  5 active torsions:
REMARK  status: ('A' for Active; 'I' for Inactive)
REMARK    1  A    between atoms: C_1  and  C_2
REMARK    2  A    between atoms: C_5  and  C_7
REMARK    3  A    between atoms: N_8  and  N_9
REMARK    4  A    between atoms: C_10  and  C_12
REMARK    5  A    between atoms: C_14  and  C_17
REMARK                            x       y       z     vdW  Elec       q    Type
REMARK                         _______ _______ _______ _____ _____    ______ ____
ROOT
ATOM      1  N   UNL     1     -11.637  -8.793  -0.028  0.00  0.00    +0.000 N 
ATOM      2  C   UNL     1     -10.546  -7.963  -0.442  0.00  0.00    +0.000 C 
ATOM      3  O   UNL     1      -9.424  -8.482  -0.691  0.00  0.00    +0.000 OA
ATOM      4  H   UNL     1     -12.541  -8.344   0.239  0.00  0.00    +0.000 HD
ENDROOT
BRANCH   2   5
ATOM      5  C   UNL     1     -10.726  -6.510  -0.587  0.00  0.00    +0.000 A 
ATOM      6  C   UNL     1      -9.794  -5.624  -1.101  0.00  0.00    +0.000 A 
ATOM      7  C   UNL     1     -10.425  -4.401  -1.029  0.00  0.00    +0.000 A 
ATOM      8  N   UNL     1     -11.658  -4.568  -0.521  0.00  0.00    +0.000 N 
ATOM      9  N   UNL     1     -11.849  -5.848  -0.243  0.00  0.00    +0.000 NA
ATOM     10  C   UNL     1      -9.885  -3.101  -1.529  0.00  0.00    +0.000 C 
ATOM     11  H   UNL     1     -12.374  -3.823  -0.370  0.00  0.00    +0.000 HD
ENDBRANCH   2   5
BRANCH   1  13
ATOM     12  C   UNL     1     -12.321 -11.088  -0.117  0.00  0.00    +0.000 C 
ATOM     13  N   UNL     1     -11.438 -10.173   0.156  0.00  0.00    +0.000 NA
BRANCH  12  18
ATOM     14  C   UNL     1     -17.512 -10.685  -1.463  0.00  0.00    +0.000 C 
ATOM     15  C   UNL     1     -16.023 -10.651  -1.405  0.00  0.00    +0.000 A 
ATOM     16  C   UNL     1     -15.171 -10.539  -2.496  0.00  0.00    +0.000 A 
ATOM     17  C   UNL     1     -13.818 -10.640  -2.153  0.00  0.00    +0.000 A 
ATOM     18  C   UNL     1     -13.607 -10.825  -0.788  0.00  0.00    +0.000 A 
ATOM     19  S   UNL     1     -15.102 -10.921  -0.024  0.00  0.00    +0.000 S 
ENDBRANCH  12  18
ENDBRANCH   1  13
TORSDOF 3
ENDMDL
MODEL 4
REMARK VINA RESULT:      -4.3      3.819      6.832
REMARK  Name = ZINC000002443590_1
REMARK  5 active torsions:
REMARK  status: ('A' for Active; 'I' for Inactive)
REMARK    1  A    between atoms: C_1  and  C_2
REMARK    2  A    between atoms: C_5  and  C_7
REMARK    3  A    between atoms: N_8  and  N_9
REMARK    4  A    between atoms: C_10  and  C_12
REMARK    5  A    between atoms: C_14  and  C_17
REMARK                            x       y       z     vdW  Elec       q    Type
REMARK                         _______ _______ _______ _____ _____    ______ ____
ROOT
ATOM      1  N   UNL     1     -10.482  -2.794   0.327  0.00  0.00    +0.000 N 
ATOM      2  C   UNL     1      -9.621  -3.393  -0.647  0.00  0.00    +0.000 C 
ATOM      3  O   UNL     1      -9.081  -2.675  -1.532  0.00  0.00    +0.000 OA
ATOM      4  H   UNL     1     -10.975  -3.408   1.012  0.00  0.00    +0.000 HD
ENDROOT
BRANCH   2   5
ATOM      5  C   UNL     1      -9.355  -4.840  -0.621  0.00  0.00    +0.000 A 
ATOM      6  C   UNL     1     -10.273  -5.839  -0.894  0.00  0.00    +0.000 A 
ATOM      7  C   UNL     1      -9.550  -7.003  -0.741  0.00  0.00    +0.000 A 
ATOM      8  N   UNL     1      -8.281  -6.698  -0.418  0.00  0.00    +0.000 N 
ATOM      9  N   UNL     1      -8.154  -5.383  -0.337  0.00  0.00    +0.000 NA
ATOM     10  C   UNL     1     -10.048  -8.388  -0.994  0.00  0.00    +0.000 C 
ATOM     11  H   UNL     1      -7.501  -7.373  -0.261  0.00  0.00    +0.000 HD
ENDBRANCH   2   5
BRANCH   1  13
ATOM     12  C   UNL     1     -11.877  -0.918  -0.201  0.00  0.00    +0.000 C 
ATOM     13  N   UNL     1     -10.769  -1.419   0.259  0.00  0.00    +0.000 NA
BRANCH  12  18
ATOM     14  C   UNL     1     -16.362  -3.884  -0.312  0.00  0.00    +0.000 C 
ATOM     15  C   UNL     1     -15.131  -3.105  -0.629  0.00  0.00    +0.000 A 
ATOM     16  C   UNL     1     -14.392  -3.197  -1.802  0.00  0.00    +0.000 A 
ATOM     17  C   UNL     1     -13.225  -2.426  -1.781  0.00  0.00    +0.000 A 
ATOM     18  C   UNL     1     -13.051  -1.721  -0.592  0.00  0.00    +0.000 A 
ATOM     19  S   UNL     1     -14.315  -2.104   0.448  0.00  0.00    +0.000 S 
ENDBRANCH  12  18
ENDBRANCH   1  13
TORSDOF 3
ENDMDL
MODEL 5
REMARK VINA RESULT:      -4.3      2.951      3.779
REMARK  Name = ZINC000002443590_1
REMARK  5 active torsions:
REMARK  status: ('A' for Active; 'I' for Inactive)
REMARK    1  A    between atoms: C_1  and  C_2
REMARK    2  A    between atoms: C_5  and  C_7
REMARK    3  A    between atoms: N_8  and  N_9
REMARK    4  A    between atoms: C_10  and  C_12
REMARK    5  A    between atoms: C_14  and  C_17
REMARK                            x       y       z     vdW  Elec       q    Type
REMARK                         _______ _______ _______ _____ _____    ______ ____
ROOT
ATOM      1  N   UNL     1      -9.307  -2.848   0.022  0.00  0.00    +0.000 N 
ATOM      2  C   UNL     1      -9.834  -3.612  -1.068  0.00  0.00    +0.000 C 
ATOM      3  O   UNL     1      -9.861  -3.114  -2.226  0.00  0.00    +0.000 OA
ATOM      4  H   UNL     1      -9.351  -3.246   0.986  0.00  0.00    +0.000 HD
ENDROOT
BRANCH   2   5
ATOM      5  C   UNL     1     -10.339  -4.977  -0.849  0.00  0.00    +0.000 A 
ATOM      6  C   UNL     1      -9.643  -6.149  -1.095  0.00  0.00    +0.000 A 
ATOM      7  C   UNL     1     -10.530  -7.141  -0.735  0.00  0.00    +0.000 A 
ATOM      8  N   UNL     1     -11.666  -6.579  -0.287  0.00  0.00    +0.000 N 
ATOM      9  N   UNL     1     -11.562  -5.262  -0.358  0.00  0.00    +0.000 NA
ATOM     10  C   UNL     1     -10.254  -8.609  -0.732  0.00  0.00    +0.000 C 
ATOM     11  H   UNL     1     -12.507  -7.082   0.073  0.00  0.00    +0.000 HD
ENDBRANCH   2   5
BRANCH   1  13
ATOM     12  C   UNL     1      -7.635  -1.174  -0.363  0.00  0.00    +0.000 C 
ATOM     13  N   UNL     1      -8.875  -1.527  -0.190  0.00  0.00    +0.000 NA
BRANCH  12  18
ATOM     14  C   UNL     1      -3.048  -3.934   0.159  0.00  0.00    +0.000 C 
ATOM     15  C   UNL     1      -4.376  -3.393  -0.250  0.00  0.00    +0.000 A 
ATOM     16  C   UNL     1      -4.984  -3.583  -1.484  0.00  0.00    +0.000 A 
ATOM     17  C   UNL     1      -6.180  -2.869  -1.627  0.00  0.00    +0.000 A 
ATOM     18  C   UNL     1      -6.514  -2.124  -0.498  0.00  0.00    +0.000 A 
ATOM     19  S   UNL     1      -5.296  -2.306   0.646  0.00  0.00    +0.000 S 
ENDBRANCH  12  18
ENDBRANCH   1  13
TORSDOF 3
ENDMDL
