ZINC000002443590_2
     RDKit          3D

 29 30  0  0  0  0  0  0  0  0999 V2000
    6.3238   -0.6565   -1.7419 C   0  0  0  0  0  0  0  0  0  0  0  0
    5.2468   -0.4570   -0.7293 C   0  0  0  0  0  0  0  0  0  0  0  0
    5.4416   -0.1233    0.6058 C   0  0  0  0  0  0  0  0  0  0  0  0
    4.2450    0.0796    1.3038 C   0  0  0  0  0  0  0  0  0  0  0  0
    3.1148   -0.0786    0.5108 C   0  0  0  0  0  0  0  0  0  0  0  0
    3.5965   -0.4672   -1.0563 S   0  0  0  0  0  0  0  0  0  0  0  0
    1.7313    0.0823    0.9685 C   0  0  0  0  0  0  0  0  0  0  0  0
    0.7453   -0.0824    0.1442 N   0  0  0  0  0  0  0  0  0  0  0  0
   -0.5904    0.0642    0.5507 N   0  0  0  0  0  0  0  0  0  0  0  0
   -1.6519   -0.1260   -0.3898 C   0  0  0  0  0  0  0  0  0  0  0  0
   -1.3838   -0.4262   -1.5846 O   0  0  0  0  0  0  0  0  0  0  0  0
   -3.0556    0.0254    0.0251 C   0  0  0  0  0  0  0  0  0  0  0  0
   -4.1639   -0.1262   -0.7901 C   0  0  0  0  0  0  0  0  0  0  0  0
   -5.2297    0.1130    0.0514 C   0  0  0  0  0  0  0  0  0  0  0  0
   -4.7667    0.4066    1.2796 N   0  0  0  0  0  0  0  0  0  0  0  0
   -3.4449    0.3502    1.2750 N   0  0  0  0  0  0  0  0  0  0  0  0
   -6.6697    0.1520   -0.3409 C   0  0  0  0  0  0  0  0  0  0  0  0
    7.2119   -1.1243   -1.2673 H   0  0  0  0  0  0  0  0  0  0  0  0
    6.6124    0.3247   -2.1724 H   0  0  0  0  0  0  0  0  0  0  0  0
    5.9617   -1.3199   -2.5549 H   0  0  0  0  0  0  0  0  0  0  0  0
    6.4180   -0.0230    1.0614 H   0  0  0  0  0  0  0  0  0  0  0  0
    4.2089    0.3429    2.3529 H   0  0  0  0  0  0  0  0  0  0  0  0
    1.5430    0.3403    2.0042 H   0  0  0  0  0  0  0  0  0  0  0  0
   -0.8139    0.3127    1.5416 H   0  0  0  0  0  0  0  0  0  0  0  0
   -4.1904   -0.3653   -1.8454 H   0  0  0  0  0  0  0  0  0  0  0  0
   -5.3406    0.6525    2.1164 H   0  0  0  0  0  0  0  0  0  0  0  0
   -7.3060   -0.1278    0.5246 H   0  0  0  0  0  0  0  0  0  0  0  0
   -6.9345    1.1773   -0.6729 H   0  0  0  0  0  0  0  0  0  0  0  0
   -6.8591   -0.5618   -1.1701 H   0  0  0  0  0  0  0  0  0  0  0  0
  1  2  1  0
  2  3  2  0
  3  4  1  0
  4  5  2  0
  5  6  1  0
  5  7  1  0
  7  8  2  0
  8  9  1  0
  9 10  1  0
 10 11  2  0
 10 12  1  0
 12 13  1  0
 13 14  2  0
 14 15  1  0
 15 16  1  0
 14 17  1  0
  6  2  1  0
 16 12  2  0
  1 18  1  0
  1 19  1  0
  1 20  1  0
  3 21  1  0
  4 22  1  0
  7 23  1  0
  9 24  1  0
 13 25  1  0
 15 26  1  0
 17 27  1  0
 17 28  1  0
 17 29  1  0
M  END
$$$$
