ZINC000002443590_2
 OpenBabel09262221223D

 19 20  0  0  0  0  0  0  0  0999 V2000
  -14.1800   -3.1830   -1.5200 N   0  0  0  0  0  0  0  0  0  0  0  0
  -15.1600   -2.5180   -0.7150 C   0  0  0  0  0  0  0  0  0  0  0  0
  -14.8300   -1.5130   -0.0290 O   0  0  0  0  0  0  0  0  0  0  0  0
  -14.4560   -4.0170   -2.0880 H   0  0  0  0  0  0  0  0  0  0  0  0
  -16.5510   -2.9980   -0.6800 C   0  0  0  0  0  0  0  0  0  0  0  0
  -17.6500   -2.3390   -1.2010 C   0  0  0  0  0  3  0  0  0  0  0  0
  -18.7050   -3.1810   -0.9220 C   0  0  0  0  0  0  0  0  0  0  0  0
  -18.2480   -4.2580   -0.2560 N   0  0  0  0  0  0  0  0  0  0  0  0
  -16.9370   -4.1580   -0.1100 N   0  0  0  0  0  0  0  0  0  0  0  0
  -20.1460   -2.9120   -1.2050 C   0  0  0  0  0  1  0  0  0  0  0  0
  -18.8210   -5.0530    0.1030 H   0  0  0  0  0  0  0  0  0  0  0  0
  -11.9160   -3.3010   -0.8730 C   0  0  0  0  0  3  0  0  0  0  0  0
  -12.8570   -2.7170   -1.5460 N   0  0  0  0  0  0  0  0  0  0  0  0
   -7.1310   -0.9810   -0.0240 C   0  0  0  0  0  1  0  0  0  0  0  0
   -8.3340   -1.6860   -0.5560 C   0  0  0  0  0  0  0  0  0  0  0  0
   -8.3790   -2.4500   -1.7170 C   0  0  0  0  0  3  0  0  0  0  0  0
   -9.6210   -3.0610   -1.9270 C   0  0  0  0  0  3  0  0  0  0  0  0
  -10.5420   -2.7890   -0.9230 C   0  0  0  0  0  0  0  0  0  0  0  0
   -9.8190   -1.7950    0.2290 S   0  0  0  0  0  0  0  0  0  0  0  0
  1  2  1  0  0  0  0
  2  5  1  0  0  0  0
  2  3  2  0  0  0  0
  4  1  1  0  0  0  0
  5  9  2  0  0  0  0
  6  7  2  0  0  0  0
  6  5  1  0  0  0  0
  7  8  1  0  0  0  0
  8  9  1  0  0  0  0
  8 11  1  0  0  0  0
 10  7  1  0  0  0  0
 13  1  1  0  0  0  0
 13 12  2  0  0  0  0
 15 14  1  0  0  0  0
 15 19  1  0  0  0  0
 16 15  2  0  0  0  0
 17 16  1  0  0  0  0
 17 18  2  0  0  0  0
 18 12  1  0  0  0  0
 18 19  1  0  0  0  0
M  END
>  <MODEL>
1

>  <REMARK>
 VINA RESULT:      -4.8      0.000      0.000
  Name = ZINC000002443590_2
  5 active torsions:
  status: ('A' for Active; 'I' for Inactive)
    1  A    between atoms: C_1  and  C_2
    2  A    between atoms: C_5  and  C_7
    3  A    between atoms: N_8  and  N_9
    4  A    between atoms: C_10  and  C_12
    5  A    between atoms: C_14  and  C_17
                            x       y       z     vdW  Elec       q    Type
                         _______ _______ _______ _____ _____    ______ ____

>  <TORSDO>
F 3

$$$$
ZINC000002443590_2
 OpenBabel09262221223D

 19 20  0  0  0  0  0  0  0  0999 V2000
  -12.6640   -2.7270    0.1730 N   0  0  0  0  0  0  0  0  0  0  0  0
  -13.3950   -1.5670   -0.2400 C   0  0  0  0  0  0  0  0  0  0  0  0
  -12.7750   -0.5550   -0.6660 O   0  0  0  0  0  0  0  0  0  0  0  0
  -13.1790   -3.5660    0.5260 H   0  0  0  0  0  0  0  0  0  0  0  0
  -14.8650   -1.5460   -0.1730 C   0  0  0  0  0  0  0  0  0  0  0  0
  -15.7200   -2.4270   -0.8120 C   0  0  0  0  0  3  0  0  0  0  0  0
  -16.9760   -1.9970   -0.4430 C   0  0  0  0  0  0  0  0  0  0  0  0
  -16.8590   -0.9150    0.3490 N   0  0  0  0  0  0  0  0  0  0  0  0
  -15.5770   -0.6360    0.5230 N   0  0  0  0  0  0  0  0  0  0  0  0
  -18.2750   -2.5590   -0.9190 C   0  0  0  0  0  1  0  0  0  0  0  0
  -17.6420   -0.3630    0.7630 H   0  0  0  0  0  0  0  0  0  0  0  0
  -10.6320   -3.2540   -0.9020 C   0  0  0  0  0  3  0  0  0  0  0  0
  -11.2620   -2.7360    0.1050 N   0  0  0  0  0  0  0  0  0  0  0  0
   -5.3500   -4.1870   -0.4270 C   0  0  0  0  0  1  0  0  0  0  0  0
   -6.7150   -3.6480   -0.6960 C   0  0  0  0  0  0  0  0  0  0  0  0
   -7.0130   -2.5700   -1.5210 C   0  0  0  0  0  3  0  0  0  0  0  0
   -8.3880   -2.3390   -1.6510 C   0  0  0  0  0  3  0  0  0  0  0  0
   -9.1660   -3.2460   -0.9420 C   0  0  0  0  0  0  0  0  0  0  0  0
   -8.1520   -4.3380   -0.1560 S   0  0  0  0  0  0  0  0  0  0  0  0
  1  4  1  0  0  0  0
  2  5  1  0  0  0  0
  2  1  1  0  0  0  0
  3  2  2  0  0  0  0
  5  9  2  0  0  0  0
  6  7  2  0  0  0  0
  6  5  1  0  0  0  0
  7  8  1  0  0  0  0
  8  9  1  0  0  0  0
  8 11  1  0  0  0  0
 10  7  1  0  0  0  0
 12 13  2  0  0  0  0
 13  1  1  0  0  0  0
 15 14  1  0  0  0  0
 15 19  1  0  0  0  0
 16 15  2  0  0  0  0
 17 16  1  0  0  0  0
 17 18  2  0  0  0  0
 18 12  1  0  0  0  0
 18 19  1  0  0  0  0
M  END
>  <MODEL>
2

>  <REMARK>
 VINA RESULT:      -4.8      2.119      2.465
  Name = ZINC000002443590_2
  5 active torsions:
  status: ('A' for Active; 'I' for Inactive)
    1  A    between atoms: C_1  and  C_2
    2  A    between atoms: C_5  and  C_7
    3  A    between atoms: N_8  and  N_9
    4  A    between atoms: C_10  and  C_12
    5  A    between atoms: C_14  and  C_17
                            x       y       z     vdW  Elec       q    Type
                         _______ _______ _______ _____ _____    ______ ____

>  <TORSDO>
F 3

$$$$
ZINC000002443590_2
 OpenBabel09262221223D

 19 20  0  0  0  0  0  0  0  0999 V2000
  -12.5940   -2.2930   -1.5880 N   0  0  0  0  0  0  0  0  0  0  0  0
  -11.5540   -3.1370   -1.0840 C   0  0  0  0  0  0  0  0  0  0  0  0
  -11.8390   -4.2730   -0.6170 O   0  0  0  0  0  0  0  0  0  0  0  0
  -12.3560   -1.3510   -1.9750 H   0  0  0  0  0  0  0  0  0  0  0  0
  -10.1510   -2.6910   -1.1070 C   0  0  0  0  0  0  0  0  0  0  0  0
   -9.5210   -1.9420   -0.1290 C   0  0  0  0  0  3  0  0  0  0  0  0
   -8.2370   -1.7870   -0.6050 C   0  0  0  0  0  0  0  0  0  0  0  0
   -8.1320   -2.3930   -1.8020 N   0  0  0  0  0  0  0  0  0  0  0  0
   -9.2910   -2.9510   -2.1130 N   0  0  0  0  0  0  0  0  0  0  0  0
   -7.1510   -0.9870    0.0350 C   0  0  0  0  0  1  0  0  0  0  0  0
   -7.2840   -2.4230   -2.4090 H   0  0  0  0  0  0  0  0  0  0  0  0
  -14.7230   -2.4280   -0.5820 C   0  0  0  0  0  3  0  0  0  0  0  0
  -13.9280   -2.7280   -1.5610 N   0  0  0  0  0  0  0  0  0  0  0  0
  -20.0140   -3.2060   -1.2110 C   0  0  0  0  0  1  0  0  0  0  0  0
  -18.5700   -3.2490   -0.8380 C   0  0  0  0  0  0  0  0  0  0  0  0
  -17.9290   -4.3040   -0.1990 C   0  0  0  0  0  3  0  0  0  0  0  0
  -16.5510   -4.1030   -0.0490 C   0  0  0  0  0  3  0  0  0  0  0  0
  -16.1120   -2.8990   -0.5850 C   0  0  0  0  0  0  0  0  0  0  0  0
  -17.4280   -2.0830   -1.2490 S   0  0  0  0  0  0  0  0  0  0  0  0
  1 13  1  0  0  0  0
  1  2  1  0  0  0  0
  2  3  2  0  0  0  0
  4  1  1  0  0  0  0
  5  2  1  0  0  0  0
  5  6  1  0  0  0  0
  7  6  2  0  0  0  0
  7 10  1  0  0  0  0
  8  7  1  0  0  0  0
  9  8  1  0  0  0  0
  9  5  2  0  0  0  0
 11  8  1  0  0  0  0
 13 12  2  0  0  0  0
 14 15  1  0  0  0  0
 15 16  2  0  0  0  0
 16 17  1  0  0  0  0
 18 12  1  0  0  0  0
 18 17  2  0  0  0  0
 19 15  1  0  0  0  0
 19 18  1  0  0  0  0
M  END
>  <MODEL>
3

>  <REMARK>
 VINA RESULT:      -4.8      2.655      8.155
  Name = ZINC000002443590_2
  5 active torsions:
  status: ('A' for Active; 'I' for Inactive)
    1  A    between atoms: C_1  and  C_2
    2  A    between atoms: C_5  and  C_7
    3  A    between atoms: N_8  and  N_9
    4  A    between atoms: C_10  and  C_12
    5  A    between atoms: C_14  and  C_17
                            x       y       z     vdW  Elec       q    Type
                         _______ _______ _______ _____ _____    ______ ____

>  <TORSDO>
F 3

$$$$
ZINC000002443590_2
 OpenBabel09262221223D

 19 20  0  0  0  0  0  0  0  0999 V2000
   -8.9900   -2.6520    0.0890 N   0  0  0  0  0  0  0  0  0  0  0  0
   -7.9930   -2.3820   -0.9030 C   0  0  0  0  0  0  0  0  0  0  0  0
   -8.3100   -2.3730   -2.1230 O   0  0  0  0  0  0  0  0  0  0  0  0
   -8.7250   -2.6590    1.1010 H   0  0  0  0  0  0  0  0  0  0  0  0
   -6.6000   -2.1130   -0.5110 C   0  0  0  0  0  0  0  0  0  0  0  0
   -5.4830   -2.7870   -0.9720 C   0  0  0  0  0  3  0  0  0  0  0  0
   -4.4340   -2.1760   -0.3190 C   0  0  0  0  0  0  0  0  0  0  0  0
   -4.9150   -1.2150    0.4910 N   0  0  0  0  0  0  0  0  0  0  0  0
   -6.2330   -1.1660    0.3760 N   0  0  0  0  0  0  0  0  0  0  0  0
   -2.9960   -2.5710   -0.4000 C   0  0  0  0  0  1  0  0  0  0  0  0
   -4.3580   -0.6010    1.1230 H   0  0  0  0  0  0  0  0  0  0  0  0
  -11.2480   -2.0190   -0.1560 C   0  0  0  0  0  3  0  0  0  0  0  0
  -10.3150   -2.9070   -0.2960 N   0  0  0  0  0  0  0  0  0  0  0  0
  -16.5510   -2.8460   -0.5900 C   0  0  0  0  0  1  0  0  0  0  0  0
  -15.0740   -2.7400   -0.7720 C   0  0  0  0  0  0  0  0  0  0  0  0
  -14.3960   -2.8670   -1.9790 C   0  0  0  0  0  3  0  0  0  0  0  0
  -13.0190   -2.6390   -1.8640 C   0  0  0  0  0  3  0  0  0  0  0  0
  -12.6230   -2.3180   -0.5710 C   0  0  0  0  0  0  0  0  0  0  0  0
  -13.9780   -2.3120    0.4310 S   0  0  0  0  0  0  0  0  0  0  0  0
  1  4  1  0  0  0  0
  2  5  1  0  0  0  0
  2  1  1  0  0  0  0
  3  2  2  0  0  0  0
  5  9  2  0  0  0  0
  6  5  1  0  0  0  0
  6  7  2  0  0  0  0
  7  8  1  0  0  0  0
  8 11  1  0  0  0  0
  9  8  1  0  0  0  0
 10  7  1  0  0  0  0
 13 12  2  0  0  0  0
 13  1  1  0  0  0  0
 15 14  1  0  0  0  0
 15 19  1  0  0  0  0
 16 17  1  0  0  0  0
 16 15  2  0  0  0  0
 17 18  2  0  0  0  0
 18 12  1  0  0  0  0
 18 19  1  0  0  0  0
M  END
>  <MODEL>
4

>  <REMARK>
 VINA RESULT:      -4.7      3.885      9.102
  Name = ZINC000002443590_2
  5 active torsions:
  status: ('A' for Active; 'I' for Inactive)
    1  A    between atoms: C_1  and  C_2
    2  A    between atoms: C_5  and  C_7
    3  A    between atoms: N_8  and  N_9
    4  A    between atoms: C_10  and  C_12
    5  A    between atoms: C_14  and  C_17
                            x       y       z     vdW  Elec       q    Type
                         _______ _______ _______ _____ _____    ______ ____

>  <TORSDO>
F 3

$$$$
