ZINC000002443590_1
 OpenBabel09262221223D

 19 20  0  0  0  0  0  0  0  0999 V2000
   -7.7880   -1.9860    1.1970 N   0  0  0  0  0  0  0  0  0  0  0  0
   -8.4410   -1.3800    0.0760 C   0  0  0  0  0  0  0  0  0  0  0  0
   -7.8140   -0.5560   -0.6440 O   0  0  0  0  0  0  0  0  0  0  0  0
   -8.3380   -2.6150    1.8230 H   0  0  0  0  0  0  0  0  0  0  0  0
   -9.8360   -1.7170   -0.2480 C   0  0  0  0  0  0  0  0  0  0  0  0
  -10.9610   -1.0840    0.2520 C   0  0  0  0  0  3  0  0  0  0  0  0
  -12.0090   -1.7520   -0.3440 C   0  0  0  0  0  0  0  0  0  0  0  0
  -11.5220   -2.7040   -1.1580 N   0  0  0  0  0  0  0  0  0  0  0  0
  -10.2000   -2.6950   -1.1020 N   0  0  0  0  0  0  0  0  0  0  0  0
  -13.4590   -1.4180   -0.2060 C   0  0  0  0  0  1  0  0  0  0  0  0
  -12.0790   -3.3540   -1.7570 H   0  0  0  0  0  0  0  0  0  0  0  0
   -5.4130   -2.3060    1.2170 C   0  0  0  0  0  3  0  0  0  0  0  0
   -6.4720   -1.6170    1.5260 N   0  0  0  0  0  0  0  0  0  0  0  0
   -5.4180   -7.3130   -0.7470 C   0  0  0  0  0  1  0  0  0  0  0  0
   -5.4200   -5.8360   -0.5410 C   0  0  0  0  0  0  0  0  0  0  0  0
   -5.0480   -4.8860   -1.4840 C   0  0  0  0  0  3  0  0  0  0  0  0
   -5.0470   -3.5800   -0.9800 C   0  0  0  0  0  3  0  0  0  0  0  0
   -5.4260   -3.5050    0.3580 C   0  0  0  0  0  0  0  0  0  0  0  0
   -5.7020   -5.0630    0.9250 S   0  0  0  0  0  0  0  0  0  0  0  0
  1 13  1  0  0  0  0
  1  4  1  0  0  0  0
  2  1  1  0  0  0  0
  3  2  2  0  0  0  0
  5  2  1  0  0  0  0
  5  6  1  0  0  0  0
  7 10  1  0  0  0  0
  7  6  2  0  0  0  0
  8  9  1  0  0  0  0
  8  7  1  0  0  0  0
  9  5  2  0  0  0  0
 11  8  1  0  0  0  0
 12 13  2  0  0  0  0
 14 15  1  0  0  0  0
 15 19  1  0  0  0  0
 16 17  1  0  0  0  0
 16 15  2  0  0  0  0
 17 18  2  0  0  0  0
 18 19  1  0  0  0  0
 18 12  1  0  0  0  0
M  END
>  <MODEL>
1

>  <REMARK>
 VINA RESULT:      -4.5      0.000      0.000
  Name = ZINC000002443590_1
  5 active torsions:
  status: ('A' for Active; 'I' for Inactive)
    1  A    between atoms: C_1  and  C_2
    2  A    between atoms: C_5  and  C_7
    3  A    between atoms: N_8  and  N_9
    4  A    between atoms: C_10  and  C_12
    5  A    between atoms: C_14  and  C_17
                            x       y       z     vdW  Elec       q    Type
                         _______ _______ _______ _____ _____    ______ ____

>  <TORSDO>
F 3

$$$$
ZINC000002443590_1
 OpenBabel09262221223D

 19 20  0  0  0  0  0  0  0  0999 V2000
  -12.4410   -2.0040    1.1790 N   0  0  0  0  0  0  0  0  0  0  0  0
  -13.1320   -1.3730    0.0960 C   0  0  0  0  0  0  0  0  0  0  0  0
  -12.5310   -0.5320   -0.6260 O   0  0  0  0  0  0  0  0  0  0  0  0
  -12.9680   -2.6470    1.8100 H   0  0  0  0  0  0  0  0  0  0  0  0
  -14.5380   -1.7020   -0.1860 C   0  0  0  0  0  0  0  0  0  0  0  0
  -15.6440   -1.0340    0.3120 C   0  0  0  0  0  3  0  0  0  0  0  0
  -16.7130   -1.7100   -0.2360 C   0  0  0  0  0  0  0  0  0  0  0  0
  -16.2550   -2.7000   -1.0230 N   0  0  0  0  0  0  0  0  0  0  0  0
  -14.9320   -2.7070   -0.9940 N   0  0  0  0  0  0  0  0  0  0  0  0
  -18.1550   -1.3510   -0.0820 C   0  0  0  0  0  1  0  0  0  0  0  0
  -16.8330   -3.3640   -1.5840 H   0  0  0  0  0  0  0  0  0  0  0  0
  -10.0710   -2.3640    1.1780 C   0  0  0  0  0  3  0  0  0  0  0  0
  -11.1130   -1.6420    1.4700 N   0  0  0  0  0  0  0  0  0  0  0  0
  -10.0010   -7.4510   -0.5640 C   0  0  0  0  0  1  0  0  0  0  0  0
  -10.0750   -5.9690   -0.4200 C   0  0  0  0  0  0  0  0  0  0  0  0
   -9.8960   -5.0460   -1.4410 C   0  0  0  0  0  3  0  0  0  0  0  0
   -9.9150   -3.7190   -0.9960 C   0  0  0  0  0  3  0  0  0  0  0  0
  -10.1170   -3.6010    0.3780 C   0  0  0  0  0  0  0  0  0  0  0  0
  -10.2110   -5.1440    1.0390 S   0  0  0  0  0  0  0  0  0  0  0  0
  1 13  1  0  0  0  0
  1  4  1  0  0  0  0
  2  1  1  0  0  0  0
  3  2  2  0  0  0  0
  5  2  1  0  0  0  0
  5  6  1  0  0  0  0
  7 10  1  0  0  0  0
  7  6  2  0  0  0  0
  8  9  1  0  0  0  0
  8  7  1  0  0  0  0
  9  5  2  0  0  0  0
 11  8  1  0  0  0  0
 12 13  2  0  0  0  0
 14 15  1  0  0  0  0
 15 19  1  0  0  0  0
 16 17  1  0  0  0  0
 16 15  2  0  0  0  0
 17 18  2  0  0  0  0
 18 19  1  0  0  0  0
 18 12  1  0  0  0  0
M  END
>  <MODEL>
2

>  <REMARK>
 VINA RESULT:      -4.3      3.731      4.694
  Name = ZINC000002443590_1
  5 active torsions:
  status: ('A' for Active; 'I' for Inactive)
    1  A    between atoms: C_1  and  C_2
    2  A    between atoms: C_5  and  C_7
    3  A    between atoms: N_8  and  N_9
    4  A    between atoms: C_10  and  C_12
    5  A    between atoms: C_14  and  C_17
                            x       y       z     vdW  Elec       q    Type
                         _______ _______ _______ _____ _____    ______ ____

>  <TORSDO>
F 3

$$$$
ZINC000002443590_1
 OpenBabel09262221223D

 19 20  0  0  0  0  0  0  0  0999 V2000
  -11.6370   -8.7930   -0.0280 N   0  0  0  0  0  0  0  0  0  0  0  0
  -10.5460   -7.9630   -0.4420 C   0  0  0  0  0  0  0  0  0  0  0  0
   -9.4240   -8.4820   -0.6910 O   0  0  0  0  0  0  0  0  0  0  0  0
  -12.5410   -8.3440    0.2390 H   0  0  0  0  0  0  0  0  0  0  0  0
  -10.7260   -6.5100   -0.5870 C   0  0  0  0  0  0  0  0  0  0  0  0
   -9.7940   -5.6240   -1.1010 C   0  0  0  0  0  3  0  0  0  0  0  0
  -10.4250   -4.4010   -1.0290 C   0  0  0  0  0  0  0  0  0  0  0  0
  -11.6580   -4.5680   -0.5210 N   0  0  0  0  0  0  0  0  0  0  0  0
  -11.8490   -5.8480   -0.2430 N   0  0  0  0  0  0  0  0  0  0  0  0
   -9.8850   -3.1010   -1.5290 C   0  0  0  0  0  1  0  0  0  0  0  0
  -12.3740   -3.8230   -0.3700 H   0  0  0  0  0  0  0  0  0  0  0  0
  -12.3210  -11.0880   -0.1170 C   0  0  0  0  0  3  0  0  0  0  0  0
  -11.4380  -10.1730    0.1560 N   0  0  0  0  0  0  0  0  0  0  0  0
  -17.5120  -10.6850   -1.4630 C   0  0  0  0  0  1  0  0  0  0  0  0
  -16.0230  -10.6510   -1.4050 C   0  0  0  0  0  0  0  0  0  0  0  0
  -15.1710  -10.5390   -2.4960 C   0  0  0  0  0  3  0  0  0  0  0  0
  -13.8180  -10.6400   -2.1530 C   0  0  0  0  0  3  0  0  0  0  0  0
  -13.6070  -10.8250   -0.7880 C   0  0  0  0  0  0  0  0  0  0  0  0
  -15.1020  -10.9210   -0.0240 S   0  0  0  0  0  0  0  0  0  0  0  0
  1 13  1  0  0  0  0
  1  4  1  0  0  0  0
  2  1  1  0  0  0  0
  3  2  2  0  0  0  0
  5  2  1  0  0  0  0
  5  9  2  0  0  0  0
  6  7  2  0  0  0  0
  6  5  1  0  0  0  0
  7  8  1  0  0  0  0
  8 11  1  0  0  0  0
  8  9  1  0  0  0  0
 10  7  1  0  0  0  0
 12 13  2  0  0  0  0
 14 15  1  0  0  0  0
 15 19  1  0  0  0  0
 16 17  1  0  0  0  0
 16 15  2  0  0  0  0
 17 18  2  0  0  0  0
 18 12  1  0  0  0  0
 18 19  1  0  0  0  0
M  END
>  <MODEL>
3

>  <REMARK>
 VINA RESULT:      -4.3      7.243      8.739
  Name = ZINC000002443590_1
  5 active torsions:
  status: ('A' for Active; 'I' for Inactive)
    1  A    between atoms: C_1  and  C_2
    2  A    between atoms: C_5  and  C_7
    3  A    between atoms: N_8  and  N_9
    4  A    between atoms: C_10  and  C_12
    5  A    between atoms: C_14  and  C_17
                            x       y       z     vdW  Elec       q    Type
                         _______ _______ _______ _____ _____    ______ ____

>  <TORSDO>
F 3

$$$$
ZINC000002443590_1
 OpenBabel09262221223D

 19 20  0  0  0  0  0  0  0  0999 V2000
  -10.4820   -2.7940    0.3270 N   0  0  0  0  0  0  0  0  0  0  0  0
   -9.6210   -3.3930   -0.6470 C   0  0  0  0  0  0  0  0  0  0  0  0
   -9.0810   -2.6750   -1.5320 O   0  0  0  0  0  0  0  0  0  0  0  0
  -10.9750   -3.4080    1.0120 H   0  0  0  0  0  0  0  0  0  0  0  0
   -9.3550   -4.8400   -0.6210 C   0  0  0  0  0  0  0  0  0  0  0  0
  -10.2730   -5.8390   -0.8940 C   0  0  0  0  0  3  0  0  0  0  0  0
   -9.5500   -7.0030   -0.7410 C   0  0  0  0  0  0  0  0  0  0  0  0
   -8.2810   -6.6980   -0.4180 N   0  0  0  0  0  0  0  0  0  0  0  0
   -8.1540   -5.3830   -0.3370 N   0  0  0  0  0  0  0  0  0  0  0  0
  -10.0480   -8.3880   -0.9940 C   0  0  0  0  0  1  0  0  0  0  0  0
   -7.5010   -7.3730   -0.2610 H   0  0  0  0  0  0  0  0  0  0  0  0
  -11.8770   -0.9180   -0.2010 C   0  0  0  0  0  3  0  0  0  0  0  0
  -10.7690   -1.4190    0.2590 N   0  0  0  0  0  0  0  0  0  0  0  0
  -16.3620   -3.8840   -0.3120 C   0  0  0  0  0  1  0  0  0  0  0  0
  -15.1310   -3.1050   -0.6290 C   0  0  0  0  0  0  0  0  0  0  0  0
  -14.3920   -3.1970   -1.8020 C   0  0  0  0  0  3  0  0  0  0  0  0
  -13.2250   -2.4260   -1.7810 C   0  0  0  0  0  3  0  0  0  0  0  0
  -13.0510   -1.7210   -0.5920 C   0  0  0  0  0  0  0  0  0  0  0  0
  -14.3150   -2.1040    0.4480 S   0  0  0  0  0  0  0  0  0  0  0  0
  1  4  1  0  0  0  0
  2  5  1  0  0  0  0
  2  1  1  0  0  0  0
  3  2  2  0  0  0  0
  5  9  2  0  0  0  0
  6  7  2  0  0  0  0
  6  5  1  0  0  0  0
  7  8  1  0  0  0  0
  8  9  1  0  0  0  0
  8 11  1  0  0  0  0
 10  7  1  0  0  0  0
 12 13  2  0  0  0  0
 13  1  1  0  0  0  0
 15 14  1  0  0  0  0
 15 19  1  0  0  0  0
 16 17  1  0  0  0  0
 16 15  2  0  0  0  0
 17 18  2  0  0  0  0
 18 12  1  0  0  0  0
 18 19  1  0  0  0  0
M  END
>  <MODEL>
4

>  <REMARK>
 VINA RESULT:      -4.3      3.819      6.832
  Name = ZINC000002443590_1
  5 active torsions:
  status: ('A' for Active; 'I' for Inactive)
    1  A    between atoms: C_1  and  C_2
    2  A    between atoms: C_5  and  C_7
    3  A    between atoms: N_8  and  N_9
    4  A    between atoms: C_10  and  C_12
    5  A    between atoms: C_14  and  C_17
                            x       y       z     vdW  Elec       q    Type
                         _______ _______ _______ _____ _____    ______ ____

>  <TORSDO>
F 3

$$$$
ZINC000002443590_1
 OpenBabel09262221223D

 19 20  0  0  0  0  0  0  0  0999 V2000
   -9.3070   -2.8480    0.0220 N   0  0  0  0  0  0  0  0  0  0  0  0
   -9.8340   -3.6120   -1.0680 C   0  0  0  0  0  0  0  0  0  0  0  0
   -9.8610   -3.1140   -2.2260 O   0  0  0  0  0  0  0  0  0  0  0  0
   -9.3510   -3.2460    0.9860 H   0  0  0  0  0  0  0  0  0  0  0  0
  -10.3390   -4.9770   -0.8490 C   0  0  0  0  0  0  0  0  0  0  0  0
   -9.6430   -6.1490   -1.0950 C   0  0  0  0  0  3  0  0  0  0  0  0
  -10.5300   -7.1410   -0.7350 C   0  0  0  0  0  0  0  0  0  0  0  0
  -11.6660   -6.5790   -0.2870 N   0  0  0  0  0  0  0  0  0  0  0  0
  -11.5620   -5.2620   -0.3580 N   0  0  0  0  0  0  0  0  0  0  0  0
  -10.2540   -8.6090   -0.7320 C   0  0  0  0  0  1  0  0  0  0  0  0
  -12.5070   -7.0820    0.0730 H   0  0  0  0  0  0  0  0  0  0  0  0
   -7.6350   -1.1740   -0.3630 C   0  0  0  0  0  3  0  0  0  0  0  0
   -8.8750   -1.5270   -0.1900 N   0  0  0  0  0  0  0  0  0  0  0  0
   -3.0480   -3.9340    0.1590 C   0  0  0  0  0  1  0  0  0  0  0  0
   -4.3760   -3.3930   -0.2500 C   0  0  0  0  0  0  0  0  0  0  0  0
   -4.9840   -3.5830   -1.4840 C   0  0  0  0  0  3  0  0  0  0  0  0
   -6.1800   -2.8690   -1.6270 C   0  0  0  0  0  3  0  0  0  0  0  0
   -6.5140   -2.1240   -0.4980 C   0  0  0  0  0  0  0  0  0  0  0  0
   -5.2960   -2.3060    0.6460 S   0  0  0  0  0  0  0  0  0  0  0  0
  1  4  1  0  0  0  0
  2  5  1  0  0  0  0
  2  1  1  0  0  0  0
  3  2  2  0  0  0  0
  5  9  2  0  0  0  0
  6  5  1  0  0  0  0
  6  7  2  0  0  0  0
  7 10  1  0  0  0  0
  7  8  1  0  0  0  0
  8 11  1  0  0  0  0
  9  8  1  0  0  0  0
 12 13  2  0  0  0  0
 13  1  1  0  0  0  0
 15 14  1  0  0  0  0
 15 19  1  0  0  0  0
 16 15  2  0  0  0  0
 17 16  1  0  0  0  0
 17 18  2  0  0  0  0
 18 12  1  0  0  0  0
 18 19  1  0  0  0  0
M  END
>  <MODEL>
5

>  <REMARK>
 VINA RESULT:      -4.3      2.951      3.779
  Name = ZINC000002443590_1
  5 active torsions:
  status: ('A' for Active; 'I' for Inactive)
    1  A    between atoms: C_1  and  C_2
    2  A    between atoms: C_5  and  C_7
    3  A    between atoms: N_8  and  N_9
    4  A    between atoms: C_10  and  C_12
    5  A    between atoms: C_14  and  C_17
                            x       y       z     vdW  Elec       q    Type
                         _______ _______ _______ _____ _____    ______ ____

>  <TORSDO>
F 3

$$$$
