MODEL 1
REMARK VINA RESULT:      -4.8      0.000      0.000
REMARK  Name = ZINC000002443590_2
REMARK  5 active torsions:
REMARK  status: ('A' for Active; 'I' for Inactive)
REMARK    1  A    between atoms: C_1  and  C_2
REMARK    2  A    between atoms: C_5  and  C_7
REMARK    3  A    between atoms: N_8  and  N_9
REMARK    4  A    between atoms: C_10  and  C_12
REMARK    5  A    between atoms: C_14  and  C_17
REMARK                            x       y       z     vdW  Elec       q    Type
REMARK                         _______ _______ _______ _____ _____    ______ ____
ROOT
ATOM      1  N   UNL     1     -14.180  -3.183  -1.520  0.00  0.00    +0.000 N 
ATOM      2  C   UNL     1     -15.160  -2.518  -0.715  0.00  0.00    +0.000 C 
ATOM      3  O   UNL     1     -14.830  -1.513  -0.029  0.00  0.00    +0.000 OA
ATOM      4  H   UNL     1     -14.456  -4.017  -2.088  0.00  0.00    +0.000 HD
ENDROOT
BRANCH   2   5
ATOM      5  C   UNL     1     -16.551  -2.998  -0.680  0.00  0.00    +0.000 A 
ATOM      6  C   UNL     1     -17.650  -2.339  -1.201  0.00  0.00    +0.000 A 
ATOM      7  C   UNL     1     -18.705  -3.181  -0.922  0.00  0.00    +0.000 A 
ATOM      8  N   UNL     1     -18.248  -4.258  -0.256  0.00  0.00    +0.000 N 
ATOM      9  N   UNL     1     -16.937  -4.158  -0.110  0.00  0.00    +0.000 NA
ATOM     10  C   UNL     1     -20.146  -2.912  -1.205  0.00  0.00    +0.000 C 
ATOM     11  H   UNL     1     -18.821  -5.053   0.103  0.00  0.00    +0.000 HD
ENDBRANCH   2   5
BRANCH   1  13
ATOM     12  C   UNL     1     -11.916  -3.301  -0.873  0.00  0.00    +0.000 C 
ATOM     13  N   UNL     1     -12.857  -2.717  -1.546  0.00  0.00    +0.000 NA
BRANCH  12  18
ATOM     14  C   UNL     1      -7.131  -0.981  -0.024  0.00  0.00    +0.000 C 
ATOM     15  C   UNL     1      -8.334  -1.686  -0.556  0.00  0.00    +0.000 A 
ATOM     16  C   UNL     1      -8.379  -2.450  -1.717  0.00  0.00    +0.000 A 
ATOM     17  C   UNL     1      -9.621  -3.061  -1.927  0.00  0.00    +0.000 A 
ATOM     18  C   UNL     1     -10.542  -2.789  -0.923  0.00  0.00    +0.000 A 
ATOM     19  S   UNL     1      -9.819  -1.795   0.229  0.00  0.00    +0.000 S 
ENDBRANCH  12  18
ENDBRANCH   1  13
TORSDOF 3
ENDMDL
MODEL 2
REMARK VINA RESULT:      -4.8      2.119      2.465
REMARK  Name = ZINC000002443590_2
REMARK  5 active torsions:
REMARK  status: ('A' for Active; 'I' for Inactive)
REMARK    1  A    between atoms: C_1  and  C_2
REMARK    2  A    between atoms: C_5  and  C_7
REMARK    3  A    between atoms: N_8  and  N_9
REMARK    4  A    between atoms: C_10  and  C_12
REMARK    5  A    between atoms: C_14  and  C_17
REMARK                            x       y       z     vdW  Elec       q    Type
REMARK                         _______ _______ _______ _____ _____    ______ ____
ROOT
ATOM      1  N   UNL     1     -12.664  -2.727   0.173  0.00  0.00    +0.000 N 
ATOM      2  C   UNL     1     -13.395  -1.567  -0.240  0.00  0.00    +0.000 C 
ATOM      3  O   UNL     1     -12.775  -0.555  -0.666  0.00  0.00    +0.000 OA
ATOM      4  H   UNL     1     -13.179  -3.566   0.526  0.00  0.00    +0.000 HD
ENDROOT
BRANCH   2   5
ATOM      5  C   UNL     1     -14.865  -1.546  -0.173  0.00  0.00    +0.000 A 
ATOM      6  C   UNL     1     -15.720  -2.427  -0.812  0.00  0.00    +0.000 A 
ATOM      7  C   UNL     1     -16.976  -1.997  -0.443  0.00  0.00    +0.000 A 
ATOM      8  N   UNL     1     -16.859  -0.915   0.349  0.00  0.00    +0.000 N 
ATOM      9  N   UNL     1     -15.577  -0.636   0.523  0.00  0.00    +0.000 NA
ATOM     10  C   UNL     1     -18.275  -2.559  -0.919  0.00  0.00    +0.000 C 
ATOM     11  H   UNL     1     -17.642  -0.363   0.763  0.00  0.00    +0.000 HD
ENDBRANCH   2   5
BRANCH   1  13
ATOM     12  C   UNL     1     -10.632  -3.254  -0.902  0.00  0.00    +0.000 C 
ATOM     13  N   UNL     1     -11.262  -2.736   0.105  0.00  0.00    +0.000 NA
BRANCH  12  18
ATOM     14  C   UNL     1      -5.350  -4.187  -0.427  0.00  0.00    +0.000 C 
ATOM     15  C   UNL     1      -6.715  -3.648  -0.696  0.00  0.00    +0.000 A 
ATOM     16  C   UNL     1      -7.013  -2.570  -1.521  0.00  0.00    +0.000 A 
ATOM     17  C   UNL     1      -8.388  -2.339  -1.651  0.00  0.00    +0.000 A 
ATOM     18  C   UNL     1      -9.166  -3.246  -0.942  0.00  0.00    +0.000 A 
ATOM     19  S   UNL     1      -8.152  -4.338  -0.156  0.00  0.00    +0.000 S 
ENDBRANCH  12  18
ENDBRANCH   1  13
TORSDOF 3
ENDMDL
MODEL 3
REMARK VINA RESULT:      -4.8      2.655      8.155
REMARK  Name = ZINC000002443590_2
REMARK  5 active torsions:
REMARK  status: ('A' for Active; 'I' for Inactive)
REMARK    1  A    between atoms: C_1  and  C_2
REMARK    2  A    between atoms: C_5  and  C_7
REMARK    3  A    between atoms: N_8  and  N_9
REMARK    4  A    between atoms: C_10  and  C_12
REMARK    5  A    between atoms: C_14  and  C_17
REMARK                            x       y       z     vdW  Elec       q    Type
REMARK                         _______ _______ _______ _____ _____    ______ ____
ROOT
ATOM      1  N   UNL     1     -12.594  -2.293  -1.588  0.00  0.00    +0.000 N 
ATOM      2  C   UNL     1     -11.554  -3.137  -1.084  0.00  0.00    +0.000 C 
ATOM      3  O   UNL     1     -11.839  -4.273  -0.617  0.00  0.00    +0.000 OA
ATOM      4  H   UNL     1     -12.356  -1.351  -1.975  0.00  0.00    +0.000 HD
ENDROOT
BRANCH   2   5
ATOM      5  C   UNL     1     -10.151  -2.691  -1.107  0.00  0.00    +0.000 A 
ATOM      6  C   UNL     1      -9.521  -1.942  -0.129  0.00  0.00    +0.000 A 
ATOM      7  C   UNL     1      -8.237  -1.787  -0.605  0.00  0.00    +0.000 A 
ATOM      8  N   UNL     1      -8.132  -2.393  -1.802  0.00  0.00    +0.000 N 
ATOM      9  N   UNL     1      -9.291  -2.951  -2.113  0.00  0.00    +0.000 NA
ATOM     10  C   UNL     1      -7.151  -0.987   0.035  0.00  0.00    +0.000 C 
ATOM     11  H   UNL     1      -7.284  -2.423  -2.409  0.00  0.00    +0.000 HD
ENDBRANCH   2   5
BRANCH   1  13
ATOM     12  C   UNL     1     -14.723  -2.428  -0.582  0.00  0.00    +0.000 C 
ATOM     13  N   UNL     1     -13.928  -2.728  -1.561  0.00  0.00    +0.000 NA
BRANCH  12  18
ATOM     14  C   UNL     1     -20.014  -3.206  -1.211  0.00  0.00    +0.000 C 
ATOM     15  C   UNL     1     -18.570  -3.249  -0.838  0.00  0.00    +0.000 A 
ATOM     16  C   UNL     1     -17.929  -4.304  -0.199  0.00  0.00    +0.000 A 
ATOM     17  C   UNL     1     -16.551  -4.103  -0.049  0.00  0.00    +0.000 A 
ATOM     18  C   UNL     1     -16.112  -2.899  -0.585  0.00  0.00    +0.000 A 
ATOM     19  S   UNL     1     -17.428  -2.083  -1.249  0.00  0.00    +0.000 S 
ENDBRANCH  12  18
ENDBRANCH   1  13
TORSDOF 3
ENDMDL
MODEL 4
REMARK VINA RESULT:      -4.7      3.885      9.102
REMARK  Name = ZINC000002443590_2
REMARK  5 active torsions:
REMARK  status: ('A' for Active; 'I' for Inactive)
REMARK    1  A    between atoms: C_1  and  C_2
REMARK    2  A    between atoms: C_5  and  C_7
REMARK    3  A    between atoms: N_8  and  N_9
REMARK    4  A    between atoms: C_10  and  C_12
REMARK    5  A    between atoms: C_14  and  C_17
REMARK                            x       y       z     vdW  Elec       q    Type
REMARK                         _______ _______ _______ _____ _____    ______ ____
ROOT
ATOM      1  N   UNL     1      -8.990  -2.652   0.089  0.00  0.00    +0.000 N 
ATOM      2  C   UNL     1      -7.993  -2.382  -0.903  0.00  0.00    +0.000 C 
ATOM      3  O   UNL     1      -8.310  -2.373  -2.123  0.00  0.00    +0.000 OA
ATOM      4  H   UNL     1      -8.725  -2.659   1.101  0.00  0.00    +0.000 HD
ENDROOT
BRANCH   2   5
ATOM      5  C   UNL     1      -6.600  -2.113  -0.511  0.00  0.00    +0.000 A 
ATOM      6  C   UNL     1      -5.483  -2.787  -0.972  0.00  0.00    +0.000 A 
ATOM      7  C   UNL     1      -4.434  -2.176  -0.319  0.00  0.00    +0.000 A 
ATOM      8  N   UNL     1      -4.915  -1.215   0.491  0.00  0.00    +0.000 N 
ATOM      9  N   UNL     1      -6.233  -1.166   0.376  0.00  0.00    +0.000 NA
ATOM     10  C   UNL     1      -2.996  -2.571  -0.400  0.00  0.00    +0.000 C 
ATOM     11  H   UNL     1      -4.358  -0.601   1.123  0.00  0.00    +0.000 HD
ENDBRANCH   2   5
BRANCH   1  13
ATOM     12  C   UNL     1     -11.248  -2.019  -0.156  0.00  0.00    +0.000 C 
ATOM     13  N   UNL     1     -10.315  -2.907  -0.296  0.00  0.00    +0.000 NA
BRANCH  12  18
ATOM     14  C   UNL     1     -16.551  -2.846  -0.590  0.00  0.00    +0.000 C 
ATOM     15  C   UNL     1     -15.074  -2.740  -0.772  0.00  0.00    +0.000 A 
ATOM     16  C   UNL     1     -14.396  -2.867  -1.979  0.00  0.00    +0.000 A 
ATOM     17  C   UNL     1     -13.019  -2.639  -1.864  0.00  0.00    +0.000 A 
ATOM     18  C   UNL     1     -12.623  -2.318  -0.571  0.00  0.00    +0.000 A 
ATOM     19  S   UNL     1     -13.978  -2.312   0.431  0.00  0.00    +0.000 S 
ENDBRANCH  12  18
ENDBRANCH   1  13
TORSDOF 3
ENDMDL
