REMARK  Name = ZINC000002443590_1
REMARK  5 active torsions:
REMARK  status: ('A' for Active; 'I' for Inactive)
REMARK    1  A    between atoms: C_1  and  C_2
REMARK    2  A    between atoms: C_5  and  C_7
REMARK    3  A    between atoms: N_8  and  N_9
REMARK    4  A    between atoms: C_10  and  C_12
REMARK    5  A    between atoms: C_14  and  C_17
REMARK                            x       y       z     vdW  Elec       q    Type
REMARK                         _______ _______ _______ _____ _____    ______ ____
ROOT
ATOM      1  N   UNL     1      -0.168   1.308  -0.670  0.00  0.00    +0.000 N 
ATOM      2  C   UNL     1       1.145   1.874  -0.605  0.00  0.00    +0.000 C 
ATOM      3  O   UNL     1       1.299   3.118  -0.744  0.00  0.00    +0.000 OA
ATOM      4  H   UNL     1      -0.275   0.271  -0.620  0.00  0.00    +0.000 HD
ENDROOT
BRANCH   2   5
ATOM      5  C   UNL     1       2.318   1.017  -0.370  0.00  0.00    +0.000 A 
ATOM      6  C   UNL     1       3.632   1.445  -0.284  0.00  0.00    +0.000 A 
ATOM      7  C   UNL     1       4.343   0.286  -0.058  0.00  0.00    +0.000 A 
ATOM      8  N   UNL     1       3.491  -0.752   0.004  0.00  0.00    +0.000 N 
ATOM      9  N   UNL     1       2.256  -0.318  -0.191  0.00  0.00    +0.000 NA
ATOM     10  C   UNL     1       5.813   0.189   0.190  0.00  0.00    +0.000 C 
ATOM     11  H   UNL     1       3.740  -1.750   0.185  0.00  0.00    +0.000 HD
ENDBRANCH   2   5
BRANCH   1  13
ATOM     12  C   UNL     1      -2.516   1.765  -0.822  0.00  0.00    +0.000 C 
ATOM     13  N   UNL     1      -1.274   2.131  -0.946  0.00  0.00    +0.000 NA
BRANCH  12  18
ATOM     14  C   UNL     1      -5.226  -2.637   0.663  0.00  0.00    +0.000 C 
ATOM     15  C   UNL     1      -4.220  -1.558   0.446  0.00  0.00    +0.000 A 
ATOM     16  C   UNL     1      -3.114  -1.308   1.248  0.00  0.00    +0.000 A 
ATOM     17  C   UNL     1      -2.402  -0.165   0.866  0.00  0.00    +0.000 A 
ATOM     18  C   UNL     1      -2.947   0.479  -0.243  0.00  0.00    +0.000 A 
ATOM     19  S   UNL     1      -4.341  -0.339  -0.706  0.00  0.00    +0.000 S 
ENDBRANCH  12  18
ENDBRANCH   1  13
TORSDOF 3
