REMARK  Name = ZINC000002443590
REMARK  5 active torsions:
REMARK  status: ('A' for Active; 'I' for Inactive)
REMARK    1  A    between atoms: C_1  and  C_2
REMARK    2  A    between atoms: C_4  and  C_5
REMARK    3  A    between atoms: N_7  and  N_8
REMARK    4  A    between atoms: C_9  and  C_10
REMARK    5  A    between atoms: C_13  and  C_14
REMARK                            x       y       z     vdW  Elec       q    Type
REMARK                         _______ _______ _______ _____ _____    ______ ____
ROOT
ATOM      1  C   UNL     1      -1.617  -0.425   0.227  0.00  0.00    +0.000 C 
ATOM      2  O   UNL     1      -1.272  -1.144   1.204  0.00  0.00    +0.000 OA
ATOM      3  N   UNL     1      -0.624   0.296  -0.510  0.00  0.00    +0.000 N 
ATOM      4  H   UNL     1      -0.911   0.892  -1.320  0.00  0.00    +0.000 HD
ENDROOT
BRANCH   1   8
ATOM      5  C   UNL     1      -6.597  -1.059  -0.005  0.00  0.00    +0.000 C 
ATOM      6  C   UNL     1      -5.198  -0.586  -0.223  0.00  0.00    +0.000 A 
ATOM      7  C   UNL     1      -4.084  -0.988   0.484  0.00  0.00    +0.000 A 
ATOM      8  C   UNL     1      -3.038  -0.336  -0.145  0.00  0.00    +0.000 A 
ATOM      9  N   UNL     1      -3.506   0.399  -1.175  0.00  0.00    +0.000 NA
ATOM     10  N   UNL     1      -4.818   0.236  -1.218  0.00  0.00    +0.000 N 
ATOM     11  H   UNL     1      -5.441   0.679  -1.928  0.00  0.00    +0.000 HD
ENDBRANCH   1   8
BRANCH   3  12
ATOM     12  N   UNL     1       0.729   0.203  -0.147  0.00  0.00    +0.000 NA
ATOM     13  C   UNL     1       1.653   0.841  -0.791  0.00  0.00    +0.000 C 
BRANCH  13  14
ATOM     14  C   UNL     1       3.057   0.722  -0.385  0.00  0.00    +0.000 A 
ATOM     15  C   UNL     1       4.128   1.355  -1.006  0.00  0.00    +0.000 A 
ATOM     16  C   UNL     1       5.362   1.055  -0.417  0.00  0.00    +0.000 A 
ATOM     17  C   UNL     1       5.255   0.202   0.675  0.00  0.00    +0.000 A 
ATOM     18  C   UNL     1       6.396  -0.357   1.457  0.00  0.00    +0.000 C 
ATOM     19  S   UNL     1       3.639  -0.211   0.891  0.00  0.00    +0.000 S 
ENDBRANCH  13  14
ENDBRANCH   3  12
TORSDOF 3
