ZINC000002443590
 OpenBabel09262221213D

 19 20  0  0  0  0  0  0  0  0999 V2000
  -15.1610   -2.4720   -0.6140 C   0  0  0  0  0  0  0  0  0  0  0  0
  -14.7760   -1.6550    0.2660 O   0  0  0  0  0  0  0  0  0  0  0  0
  -14.2310   -2.9570   -1.5880 N   0  0  0  0  0  0  0  0  0  0  0  0
  -14.5510   -3.6350   -2.3180 H   0  0  0  0  0  0  0  0  0  0  0  0
  -20.0890   -2.8850   -1.5090 C   0  0  0  0  0  1  0  0  0  0  0  0
  -18.6900   -3.1170   -1.0430 C   0  0  0  0  0  0  0  0  0  0  0  0
  -17.5880   -2.3520   -1.3650 C   0  0  0  0  0  3  0  0  0  0  0  0
  -16.5630   -2.9190   -0.6290 C   0  0  0  0  0  0  0  0  0  0  0  0
  -17.0360   -3.9530    0.0980 N   0  0  0  0  0  0  0  0  0  0  0  0
  -18.3290   -4.0610   -0.1550 N   0  0  0  0  0  0  0  0  0  0  0  0
  -18.9560   -4.7710    0.2830 H   0  0  0  0  0  0  0  0  0  0  0  0
  -12.8960   -2.5250   -1.5640 N   0  0  0  0  0  0  0  0  0  0  0  0
  -11.9580   -3.2380   -1.0270 C   0  0  0  0  0  3  0  0  0  0  0  0
  -10.5730   -2.7570   -1.0200 C   0  0  0  0  0  0  0  0  0  0  0  0
   -9.6040   -3.0850   -1.9620 C   0  0  0  0  0  3  0  0  0  0  0  0
   -8.3620   -2.4930   -1.7050 C   0  0  0  0  0  3  0  0  0  0  0  0
   -8.3640   -1.6870   -0.5720 C   0  0  0  0  0  0  0  0  0  0  0  0
   -7.1760   -0.9880   -0.0010 C   0  0  0  0  0  1  0  0  0  0  0  0
   -9.8900   -1.7350    0.1320 S   0  0  0  0  0  0  0  0  0  0  0  0
  1  2  2  0  0  0  0
  3 12  1  0  0  0  0
  3  1  1  0  0  0  0
  4  3  1  0  0  0  0
  5  6  1  0  0  0  0
  6 10  1  0  0  0  0
  7  6  2  0  0  0  0
  7  8  1  0  0  0  0
  8  1  1  0  0  0  0
  8  9  2  0  0  0  0
 10  9  1  0  0  0  0
 10 11  1  0  0  0  0
 12 13  2  0  0  0  0
 13 14  1  0  0  0  0
 14 19  1  0  0  0  0
 15 16  1  0  0  0  0
 15 14  2  0  0  0  0
 16 17  2  0  0  0  0
 17 18  1  0  0  0  0
 17 19  1  0  0  0  0
M  END
>  <MODEL>
1

>  <REMARK>
 VINA RESULT:      -4.8      0.000      0.000
  Name = ZINC000002443590
  5 active torsions:
  status: ('A' for Active; 'I' for Inactive)
    1  A    between atoms: C_1  and  C_2
    2  A    between atoms: C_4  and  C_5
    3  A    between atoms: N_7  and  N_8
    4  A    between atoms: C_9  and  C_10
    5  A    between atoms: C_13  and  C_14
                            x       y       z     vdW  Elec       q    Type
                         _______ _______ _______ _____ _____    ______ ____

>  <TORSDO>
F 3

$$$$
ZINC000002443590
 OpenBabel09262221213D

 19 20  0  0  0  0  0  0  0  0999 V2000
  -13.3520   -1.5520   -0.1930 C   0  0  0  0  0  0  0  0  0  0  0  0
  -12.7410   -0.5320   -0.6130 O   0  0  0  0  0  0  0  0  0  0  0  0
  -12.6120   -2.7110    0.2030 N   0  0  0  0  0  0  0  0  0  0  0  0
  -13.1200   -3.5570    0.5520 H   0  0  0  0  0  0  0  0  0  0  0  0
  -18.2280   -2.6400   -0.7390 C   0  0  0  0  0  1  0  0  0  0  0  0
  -16.9310   -2.0290   -0.3230 C   0  0  0  0  0  0  0  0  0  0  0  0
  -15.6730   -2.4760   -0.6700 C   0  0  0  0  0  3  0  0  0  0  0  0
  -14.8220   -1.5380   -0.1140 C   0  0  0  0  0  0  0  0  0  0  0  0
  -15.5370   -0.5820    0.5150 N   0  0  0  0  0  0  0  0  0  0  0  0
  -16.8170   -0.8860    0.3770 N   0  0  0  0  0  0  0  0  0  0  0  0
  -17.6000   -0.3090    0.7530 H   0  0  0  0  0  0  0  0  0  0  0  0
  -11.2100   -2.7130    0.1250 N   0  0  0  0  0  0  0  0  0  0  0  0
  -10.5820   -3.3210   -0.8290 C   0  0  0  0  0  3  0  0  0  0  0  0
   -9.1160   -3.3030   -0.8820 C   0  0  0  0  0  0  0  0  0  0  0  0
   -8.3490   -2.3450   -1.5350 C   0  0  0  0  0  3  0  0  0  0  0  0
   -6.9720   -2.5790   -1.4330 C   0  0  0  0  0  3  0  0  0  0  0  0
   -6.6620   -3.7090   -0.6850 C   0  0  0  0  0  0  0  0  0  0  0  0
   -5.2920   -4.2570   -0.4650 C   0  0  0  0  0  1  0  0  0  0  0  0
   -8.0900   -4.4400   -0.1800 S   0  0  0  0  0  0  0  0  0  0  0  0
  1  8  1  0  0  0  0
  1  3  1  0  0  0  0
  2  1  2  0  0  0  0
  3  4  1  0  0  0  0
  5  6  1  0  0  0  0
  6 10  1  0  0  0  0
  7  6  2  0  0  0  0
  7  8  1  0  0  0  0
  8  9  2  0  0  0  0
 10  9  1  0  0  0  0
 10 11  1  0  0  0  0
 12  3  1  0  0  0  0
 13 12  2  0  0  0  0
 14 13  1  0  0  0  0
 14 19  1  0  0  0  0
 15 16  1  0  0  0  0
 15 14  2  0  0  0  0
 16 17  2  0  0  0  0
 17 18  1  0  0  0  0
 17 19  1  0  0  0  0
M  END
>  <MODEL>
2

>  <REMARK>
 VINA RESULT:      -4.8      2.139      2.516
  Name = ZINC000002443590
  5 active torsions:
  status: ('A' for Active; 'I' for Inactive)
    1  A    between atoms: C_1  and  C_2
    2  A    between atoms: C_4  and  C_5
    3  A    between atoms: N_7  and  N_8
    4  A    between atoms: C_9  and  C_10
    5  A    between atoms: C_13  and  C_14
                            x       y       z     vdW  Elec       q    Type
                         _______ _______ _______ _____ _____    ______ ____

>  <TORSDO>
F 3

$$$$
ZINC000002443590
 OpenBabel09262221213D

 19 20  0  0  0  0  0  0  0  0999 V2000
  -10.4830   -2.2910   -0.8340 C   0  0  0  0  0  0  0  0  0  0  0  0
  -10.9520   -2.8900   -1.8400 O   0  0  0  0  0  0  0  0  0  0  0  0
  -11.3490   -1.5100   -0.0040 N   0  0  0  0  0  0  0  0  0  0  0  0
  -10.9590   -1.0140    0.8300 H   0  0  0  0  0  0  0  0  0  0  0  0
   -5.5040   -2.8940   -1.1600 C   0  0  0  0  0  1  0  0  0  0  0  0
   -6.8900   -2.6310   -0.6700 C   0  0  0  0  0  0  0  0  0  0  0  0
   -8.0320   -2.5960   -1.4420 C   0  0  0  0  0  3  0  0  0  0  0  0
   -9.0490   -2.4030   -0.5240 C   0  0  0  0  0  0  0  0  0  0  0  0
   -8.5370   -2.3420    0.7230 N   0  0  0  0  0  0  0  0  0  0  0  0
   -7.2260   -2.4880    0.6250 N   0  0  0  0  0  0  0  0  0  0  0  0
   -6.5740   -2.4960    1.4390 H   0  0  0  0  0  0  0  0  0  0  0  0
  -12.7160   -1.4110   -0.3090 N   0  0  0  0  0  0  0  0  0  0  0  0
  -13.6190   -1.9940    0.4120 C   0  0  0  0  0  3  0  0  0  0  0  0
  -15.0390   -1.8700    0.0660 C   0  0  0  0  0  0  0  0  0  0  0  0
  -15.8240   -0.7450    0.2930 C   0  0  0  0  0  3  0  0  0  0  0  0
  -17.1500   -0.9050   -0.1270 C   0  0  0  0  0  3  0  0  0  0  0  0
  -17.3970   -2.1470   -0.6990 C   0  0  0  0  0  0  0  0  0  0  0  0
  -18.7250   -2.6400   -1.1680 C   0  0  0  0  0  1  0  0  0  0  0  0
  -15.9870   -3.0620   -0.6530 S   0  0  0  0  0  0  0  0  0  0  0  0
  1  8  1  0  0  0  0
  1  3  1  0  0  0  0
  2  1  2  0  0  0  0
  3  4  1  0  0  0  0
  5  6  1  0  0  0  0
  6 10  1  0  0  0  0
  7  6  2  0  0  0  0
  7  8  1  0  0  0  0
  8  9  2  0  0  0  0
 10  9  1  0  0  0  0
 10 11  1  0  0  0  0
 12  3  1  0  0  0  0
 12 13  2  0  0  0  0
 14 15  2  0  0  0  0
 14 13  1  0  0  0  0
 16 15  1  0  0  0  0
 17 19  1  0  0  0  0
 17 16  2  0  0  0  0
 18 17  1  0  0  0  0
 19 14  1  0  0  0  0
M  END
>  <MODEL>
3

>  <REMARK>
 VINA RESULT:      -4.7      3.026      8.328
  Name = ZINC000002443590
  5 active torsions:
  status: ('A' for Active; 'I' for Inactive)
    1  A    between atoms: C_1  and  C_2
    2  A    between atoms: C_4  and  C_5
    3  A    between atoms: N_7  and  N_8
    4  A    between atoms: C_9  and  C_10
    5  A    between atoms: C_13  and  C_14
                            x       y       z     vdW  Elec       q    Type
                         _______ _______ _______ _____ _____    ______ ____

>  <TORSDO>
F 3

$$$$
ZINC000002443590
 OpenBabel09262221213D

 19 20  0  0  0  0  0  0  0  0999 V2000
  -11.7430   -2.9600   -0.7170 C   0  0  0  0  0  0  0  0  0  0  0  0
  -12.0160   -4.1520   -0.4080 O   0  0  0  0  0  0  0  0  0  0  0  0
  -12.7810   -2.0910   -1.1810 N   0  0  0  0  0  0  0  0  0  0  0  0
  -12.5540   -1.1030   -1.4370 H   0  0  0  0  0  0  0  0  0  0  0  0
   -6.7590   -2.4370   -1.1010 C   0  0  0  0  0  1  0  0  0  0  0  0
   -8.2050   -2.2320   -0.7910 C   0  0  0  0  0  0  0  0  0  0  0  0
   -9.2480   -3.0340   -1.2060 C   0  0  0  0  0  3  0  0  0  0  0  0
  -10.3580   -2.4760   -0.5970 C   0  0  0  0  0  0  0  0  0  0  0  0
   -9.9900   -1.4130    0.1470 N   0  0  0  0  0  0  0  0  0  0  0  0
   -8.6800   -1.2760    0.0280 N   0  0  0  0  0  0  0  0  0  0  0  0
   -8.1210   -0.5390    0.5100 H   0  0  0  0  0  0  0  0  0  0  0  0
  -14.0990   -2.5630   -1.2910 N   0  0  0  0  0  0  0  0  0  0  0  0
  -14.9820   -2.3380   -0.3720 C   0  0  0  0  0  3  0  0  0  0  0  0
  -16.3500   -2.8450   -0.5180 C   0  0  0  0  0  0  0  0  0  0  0  0
  -16.8010   -4.0800   -0.0650 C   0  0  0  0  0  3  0  0  0  0  0  0
  -18.1520   -4.3120   -0.3490 C   0  0  0  0  0  3  0  0  0  0  0  0
  -18.7630   -3.2520   -1.0090 C   0  0  0  0  0  0  0  0  0  0  0  0
  -20.1670   -3.2340   -1.5120 C   0  0  0  0  0  1  0  0  0  0  0  0
  -17.6240   -2.0430   -1.2740 S   0  0  0  0  0  0  0  0  0  0  0  0
  1  8  1  0  0  0  0
  1  2  2  0  0  0  0
  3  1  1  0  0  0  0
  4  3  1  0  0  0  0
  5  6  1  0  0  0  0
  6 10  1  0  0  0  0
  7  6  2  0  0  0  0
  7  8  1  0  0  0  0
  8  9  2  0  0  0  0
 10  9  1  0  0  0  0
 10 11  1  0  0  0  0
 12  3  1  0  0  0  0
 12 13  2  0  0  0  0
 14 13  1  0  0  0  0
 14 15  2  0  0  0  0
 16 15  1  0  0  0  0
 17 16  2  0  0  0  0
 18 17  1  0  0  0  0
 19 17  1  0  0  0  0
 19 14  1  0  0  0  0
M  END
>  <MODEL>
4

>  <REMARK>
 VINA RESULT:      -4.7      2.658      8.173
  Name = ZINC000002443590
  5 active torsions:
  status: ('A' for Active; 'I' for Inactive)
    1  A    between atoms: C_1  and  C_2
    2  A    between atoms: C_4  and  C_5
    3  A    between atoms: N_7  and  N_8
    4  A    between atoms: C_9  and  C_10
    5  A    between atoms: C_13  and  C_14
                            x       y       z     vdW  Elec       q    Type
                         _______ _______ _______ _____ _____    ______ ____

>  <TORSDO>
F 3

$$$$
ZINC000002443590
 OpenBabel09262221213D

 19 20  0  0  0  0  0  0  0  0999 V2000
   -7.9620   -2.4150   -0.9450 C   0  0  0  0  0  0  0  0  0  0  0  0
   -8.3000   -2.4150   -2.1600 O   0  0  0  0  0  0  0  0  0  0  0  0
   -8.9450   -2.6640    0.0650 N   0  0  0  0  0  0  0  0  0  0  0  0
   -8.6640   -2.6650    1.0730 H   0  0  0  0  0  0  0  0  0  0  0  0
   -2.9550   -2.6250   -0.5700 C   0  0  0  0  0  1  0  0  0  0  0  0
   -4.3890   -2.2300   -0.4430 C   0  0  0  0  0  0  0  0  0  0  0  0
   -5.4550   -2.8240   -1.0860 C   0  0  0  0  0  3  0  0  0  0  0  0
   -6.5590   -2.1610   -0.5800 C   0  0  0  0  0  0  0  0  0  0  0  0
   -6.1680   -1.2370    0.3230 N   0  0  0  0  0  0  0  0  0  0  0  0
   -4.8490   -1.2910    0.4030 N   0  0  0  0  0  0  0  0  0  0  0  0
   -4.2750   -0.6940    1.0380 H   0  0  0  0  0  0  0  0  0  0  0  0
  -10.2800   -2.9070   -0.2950 N   0  0  0  0  0  0  0  0  0  0  0  0
  -11.2040   -2.0170   -0.1250 C   0  0  0  0  0  3  0  0  0  0  0  0
  -12.5890   -2.3040   -0.5130 C   0  0  0  0  0  0  0  0  0  0  0  0
  -13.0150   -2.6080   -1.8010 C   0  0  0  0  0  3  0  0  0  0  0  0
  -14.3950   -2.8260   -1.8880 C   0  0  0  0  0  3  0  0  0  0  0  0
  -15.0460   -2.7100   -0.6650 C   0  0  0  0  0  0  0  0  0  0  0  0
  -16.5200   -2.8090   -0.4510 C   0  0  0  0  0  1  0  0  0  0  0  0
  -13.9220   -2.3020    0.5170 S   0  0  0  0  0  0  0  0  0  0  0  0
  1  8  1  0  0  0  0
  1  3  1  0  0  0  0
  2  1  2  0  0  0  0
  3  4  1  0  0  0  0
  5  6  1  0  0  0  0
  6 10  1  0  0  0  0
  7  8  1  0  0  0  0
  7  6  2  0  0  0  0
  8  9  2  0  0  0  0
  9 10  1  0  0  0  0
 10 11  1  0  0  0  0
 12 13  2  0  0  0  0
 12  3  1  0  0  0  0
 14 13  1  0  0  0  0
 14 19  1  0  0  0  0
 15 14  2  0  0  0  0
 16 15  1  0  0  0  0
 16 17  2  0  0  0  0
 17 18  1  0  0  0  0
 17 19  1  0  0  0  0
M  END
>  <MODEL>
5

>  <REMARK>
 VINA RESULT:      -4.7      3.919      9.115
  Name = ZINC000002443590
  5 active torsions:
  status: ('A' for Active; 'I' for Inactive)
    1  A    between atoms: C_1  and  C_2
    2  A    between atoms: C_4  and  C_5
    3  A    between atoms: N_7  and  N_8
    4  A    between atoms: C_9  and  C_10
    5  A    between atoms: C_13  and  C_14
                            x       y       z     vdW  Elec       q    Type
                         _______ _______ _______ _____ _____    ______ ____

>  <TORSDO>
F 3

$$$$
