MODEL 1
REMARK VINA RESULT:      -4.8      0.000      0.000
REMARK  Name = ZINC000002443590
REMARK  5 active torsions:
REMARK  status: ('A' for Active; 'I' for Inactive)
REMARK    1  A    between atoms: C_1  and  C_2
REMARK    2  A    between atoms: C_4  and  C_5
REMARK    3  A    between atoms: N_7  and  N_8
REMARK    4  A    between atoms: C_9  and  C_10
REMARK    5  A    between atoms: C_13  and  C_14
REMARK                            x       y       z     vdW  Elec       q    Type
REMARK                         _______ _______ _______ _____ _____    ______ ____
ROOT
ATOM      1  C   UNL     1     -15.161  -2.472  -0.614  0.00  0.00    +0.000 C 
ATOM      2  O   UNL     1     -14.776  -1.655   0.266  0.00  0.00    +0.000 OA
ATOM      3  N   UNL     1     -14.231  -2.957  -1.588  0.00  0.00    +0.000 N 
ATOM      4  H   UNL     1     -14.551  -3.635  -2.318  0.00  0.00    +0.000 HD
ENDROOT
BRANCH   1   8
ATOM      5  C   UNL     1     -20.089  -2.885  -1.509  0.00  0.00    +0.000 C 
ATOM      6  C   UNL     1     -18.690  -3.117  -1.043  0.00  0.00    +0.000 A 
ATOM      7  C   UNL     1     -17.588  -2.352  -1.365  0.00  0.00    +0.000 A 
ATOM      8  C   UNL     1     -16.563  -2.919  -0.629  0.00  0.00    +0.000 A 
ATOM      9  N   UNL     1     -17.036  -3.953   0.098  0.00  0.00    +0.000 NA
ATOM     10  N   UNL     1     -18.329  -4.061  -0.155  0.00  0.00    +0.000 N 
ATOM     11  H   UNL     1     -18.956  -4.771   0.283  0.00  0.00    +0.000 HD
ENDBRANCH   1   8
BRANCH   3  12
ATOM     12  N   UNL     1     -12.896  -2.525  -1.564  0.00  0.00    +0.000 NA
ATOM     13  C   UNL     1     -11.958  -3.238  -1.027  0.00  0.00    +0.000 C 
BRANCH  13  14
ATOM     14  C   UNL     1     -10.573  -2.757  -1.020  0.00  0.00    +0.000 A 
ATOM     15  C   UNL     1      -9.604  -3.085  -1.962  0.00  0.00    +0.000 A 
ATOM     16  C   UNL     1      -8.362  -2.493  -1.705  0.00  0.00    +0.000 A 
ATOM     17  C   UNL     1      -8.364  -1.687  -0.572  0.00  0.00    +0.000 A 
ATOM     18  C   UNL     1      -7.176  -0.988  -0.001  0.00  0.00    +0.000 C 
ATOM     19  S   UNL     1      -9.890  -1.735   0.132  0.00  0.00    +0.000 S 
ENDBRANCH  13  14
ENDBRANCH   3  12
TORSDOF 3
ENDMDL
MODEL 2
REMARK VINA RESULT:      -4.8      2.139      2.516
REMARK  Name = ZINC000002443590
REMARK  5 active torsions:
REMARK  status: ('A' for Active; 'I' for Inactive)
REMARK    1  A    between atoms: C_1  and  C_2
REMARK    2  A    between atoms: C_4  and  C_5
REMARK    3  A    between atoms: N_7  and  N_8
REMARK    4  A    between atoms: C_9  and  C_10
REMARK    5  A    between atoms: C_13  and  C_14
REMARK                            x       y       z     vdW  Elec       q    Type
REMARK                         _______ _______ _______ _____ _____    ______ ____
ROOT
ATOM      1  C   UNL     1     -13.352  -1.552  -0.193  0.00  0.00    +0.000 C 
ATOM      2  O   UNL     1     -12.741  -0.532  -0.613  0.00  0.00    +0.000 OA
ATOM      3  N   UNL     1     -12.612  -2.711   0.203  0.00  0.00    +0.000 N 
ATOM      4  H   UNL     1     -13.120  -3.557   0.552  0.00  0.00    +0.000 HD
ENDROOT
BRANCH   1   8
ATOM      5  C   UNL     1     -18.228  -2.640  -0.739  0.00  0.00    +0.000 C 
ATOM      6  C   UNL     1     -16.931  -2.029  -0.323  0.00  0.00    +0.000 A 
ATOM      7  C   UNL     1     -15.673  -2.476  -0.670  0.00  0.00    +0.000 A 
ATOM      8  C   UNL     1     -14.822  -1.538  -0.114  0.00  0.00    +0.000 A 
ATOM      9  N   UNL     1     -15.537  -0.582   0.515  0.00  0.00    +0.000 NA
ATOM     10  N   UNL     1     -16.817  -0.886   0.377  0.00  0.00    +0.000 N 
ATOM     11  H   UNL     1     -17.600  -0.309   0.753  0.00  0.00    +0.000 HD
ENDBRANCH   1   8
BRANCH   3  12
ATOM     12  N   UNL     1     -11.210  -2.713   0.125  0.00  0.00    +0.000 NA
ATOM     13  C   UNL     1     -10.582  -3.321  -0.829  0.00  0.00    +0.000 C 
BRANCH  13  14
ATOM     14  C   UNL     1      -9.116  -3.303  -0.882  0.00  0.00    +0.000 A 
ATOM     15  C   UNL     1      -8.349  -2.345  -1.535  0.00  0.00    +0.000 A 
ATOM     16  C   UNL     1      -6.972  -2.579  -1.433  0.00  0.00    +0.000 A 
ATOM     17  C   UNL     1      -6.662  -3.709  -0.685  0.00  0.00    +0.000 A 
ATOM     18  C   UNL     1      -5.292  -4.257  -0.465  0.00  0.00    +0.000 C 
ATOM     19  S   UNL     1      -8.090  -4.440  -0.180  0.00  0.00    +0.000 S 
ENDBRANCH  13  14
ENDBRANCH   3  12
TORSDOF 3
ENDMDL
MODEL 3
REMARK VINA RESULT:      -4.7      3.026      8.328
REMARK  Name = ZINC000002443590
REMARK  5 active torsions:
REMARK  status: ('A' for Active; 'I' for Inactive)
REMARK    1  A    between atoms: C_1  and  C_2
REMARK    2  A    between atoms: C_4  and  C_5
REMARK    3  A    between atoms: N_7  and  N_8
REMARK    4  A    between atoms: C_9  and  C_10
REMARK    5  A    between atoms: C_13  and  C_14
REMARK                            x       y       z     vdW  Elec       q    Type
REMARK                         _______ _______ _______ _____ _____    ______ ____
ROOT
ATOM      1  C   UNL     1     -10.483  -2.291  -0.834  0.00  0.00    +0.000 C 
ATOM      2  O   UNL     1     -10.952  -2.890  -1.840  0.00  0.00    +0.000 OA
ATOM      3  N   UNL     1     -11.349  -1.510  -0.004  0.00  0.00    +0.000 N 
ATOM      4  H   UNL     1     -10.959  -1.014   0.830  0.00  0.00    +0.000 HD
ENDROOT
BRANCH   1   8
ATOM      5  C   UNL     1      -5.504  -2.894  -1.160  0.00  0.00    +0.000 C 
ATOM      6  C   UNL     1      -6.890  -2.631  -0.670  0.00  0.00    +0.000 A 
ATOM      7  C   UNL     1      -8.032  -2.596  -1.442  0.00  0.00    +0.000 A 
ATOM      8  C   UNL     1      -9.049  -2.403  -0.524  0.00  0.00    +0.000 A 
ATOM      9  N   UNL     1      -8.537  -2.342   0.723  0.00  0.00    +0.000 NA
ATOM     10  N   UNL     1      -7.226  -2.488   0.625  0.00  0.00    +0.000 N 
ATOM     11  H   UNL     1      -6.574  -2.496   1.439  0.00  0.00    +0.000 HD
ENDBRANCH   1   8
BRANCH   3  12
ATOM     12  N   UNL     1     -12.716  -1.411  -0.309  0.00  0.00    +0.000 NA
ATOM     13  C   UNL     1     -13.619  -1.994   0.412  0.00  0.00    +0.000 C 
BRANCH  13  14
ATOM     14  C   UNL     1     -15.039  -1.870   0.066  0.00  0.00    +0.000 A 
ATOM     15  C   UNL     1     -15.824  -0.745   0.293  0.00  0.00    +0.000 A 
ATOM     16  C   UNL     1     -17.150  -0.905  -0.127  0.00  0.00    +0.000 A 
ATOM     17  C   UNL     1     -17.397  -2.147  -0.699  0.00  0.00    +0.000 A 
ATOM     18  C   UNL     1     -18.725  -2.640  -1.168  0.00  0.00    +0.000 C 
ATOM     19  S   UNL     1     -15.987  -3.062  -0.653  0.00  0.00    +0.000 S 
ENDBRANCH  13  14
ENDBRANCH   3  12
TORSDOF 3
ENDMDL
MODEL 4
REMARK VINA RESULT:      -4.7      2.658      8.173
REMARK  Name = ZINC000002443590
REMARK  5 active torsions:
REMARK  status: ('A' for Active; 'I' for Inactive)
REMARK    1  A    between atoms: C_1  and  C_2
REMARK    2  A    between atoms: C_4  and  C_5
REMARK    3  A    between atoms: N_7  and  N_8
REMARK    4  A    between atoms: C_9  and  C_10
REMARK    5  A    between atoms: C_13  and  C_14
REMARK                            x       y       z     vdW  Elec       q    Type
REMARK                         _______ _______ _______ _____ _____    ______ ____
ROOT
ATOM      1  C   UNL     1     -11.743  -2.960  -0.717  0.00  0.00    +0.000 C 
ATOM      2  O   UNL     1     -12.016  -4.152  -0.408  0.00  0.00    +0.000 OA
ATOM      3  N   UNL     1     -12.781  -2.091  -1.181  0.00  0.00    +0.000 N 
ATOM      4  H   UNL     1     -12.554  -1.103  -1.437  0.00  0.00    +0.000 HD
ENDROOT
BRANCH   1   8
ATOM      5  C   UNL     1      -6.759  -2.437  -1.101  0.00  0.00    +0.000 C 
ATOM      6  C   UNL     1      -8.205  -2.232  -0.791  0.00  0.00    +0.000 A 
ATOM      7  C   UNL     1      -9.248  -3.034  -1.206  0.00  0.00    +0.000 A 
ATOM      8  C   UNL     1     -10.358  -2.476  -0.597  0.00  0.00    +0.000 A 
ATOM      9  N   UNL     1      -9.990  -1.413   0.147  0.00  0.00    +0.000 NA
ATOM     10  N   UNL     1      -8.680  -1.276   0.028  0.00  0.00    +0.000 N 
ATOM     11  H   UNL     1      -8.121  -0.539   0.510  0.00  0.00    +0.000 HD
ENDBRANCH   1   8
BRANCH   3  12
ATOM     12  N   UNL     1     -14.099  -2.563  -1.291  0.00  0.00    +0.000 NA
ATOM     13  C   UNL     1     -14.982  -2.338  -0.372  0.00  0.00    +0.000 C 
BRANCH  13  14
ATOM     14  C   UNL     1     -16.350  -2.845  -0.518  0.00  0.00    +0.000 A 
ATOM     15  C   UNL     1     -16.801  -4.080  -0.065  0.00  0.00    +0.000 A 
ATOM     16  C   UNL     1     -18.152  -4.312  -0.349  0.00  0.00    +0.000 A 
ATOM     17  C   UNL     1     -18.763  -3.252  -1.009  0.00  0.00    +0.000 A 
ATOM     18  C   UNL     1     -20.167  -3.234  -1.512  0.00  0.00    +0.000 C 
ATOM     19  S   UNL     1     -17.624  -2.043  -1.274  0.00  0.00    +0.000 S 
ENDBRANCH  13  14
ENDBRANCH   3  12
TORSDOF 3
ENDMDL
MODEL 5
REMARK VINA RESULT:      -4.7      3.919      9.115
REMARK  Name = ZINC000002443590
REMARK  5 active torsions:
REMARK  status: ('A' for Active; 'I' for Inactive)
REMARK    1  A    between atoms: C_1  and  C_2
REMARK    2  A    between atoms: C_4  and  C_5
REMARK    3  A    between atoms: N_7  and  N_8
REMARK    4  A    between atoms: C_9  and  C_10
REMARK    5  A    between atoms: C_13  and  C_14
REMARK                            x       y       z     vdW  Elec       q    Type
REMARK                         _______ _______ _______ _____ _____    ______ ____
ROOT
ATOM      1  C   UNL     1      -7.962  -2.415  -0.945  0.00  0.00    +0.000 C 
ATOM      2  O   UNL     1      -8.300  -2.415  -2.160  0.00  0.00    +0.000 OA
ATOM      3  N   UNL     1      -8.945  -2.664   0.065  0.00  0.00    +0.000 N 
ATOM      4  H   UNL     1      -8.664  -2.665   1.073  0.00  0.00    +0.000 HD
ENDROOT
BRANCH   1   8
ATOM      5  C   UNL     1      -2.955  -2.625  -0.570  0.00  0.00    +0.000 C 
ATOM      6  C   UNL     1      -4.389  -2.230  -0.443  0.00  0.00    +0.000 A 
ATOM      7  C   UNL     1      -5.455  -2.824  -1.086  0.00  0.00    +0.000 A 
ATOM      8  C   UNL     1      -6.559  -2.161  -0.580  0.00  0.00    +0.000 A 
ATOM      9  N   UNL     1      -6.168  -1.237   0.323  0.00  0.00    +0.000 NA
ATOM     10  N   UNL     1      -4.849  -1.291   0.403  0.00  0.00    +0.000 N 
ATOM     11  H   UNL     1      -4.275  -0.694   1.038  0.00  0.00    +0.000 HD
ENDBRANCH   1   8
BRANCH   3  12
ATOM     12  N   UNL     1     -10.280  -2.907  -0.295  0.00  0.00    +0.000 NA
ATOM     13  C   UNL     1     -11.204  -2.017  -0.125  0.00  0.00    +0.000 C 
BRANCH  13  14
ATOM     14  C   UNL     1     -12.589  -2.304  -0.513  0.00  0.00    +0.000 A 
ATOM     15  C   UNL     1     -13.015  -2.608  -1.801  0.00  0.00    +0.000 A 
ATOM     16  C   UNL     1     -14.395  -2.826  -1.888  0.00  0.00    +0.000 A 
ATOM     17  C   UNL     1     -15.046  -2.710  -0.665  0.00  0.00    +0.000 A 
ATOM     18  C   UNL     1     -16.520  -2.809  -0.451  0.00  0.00    +0.000 C 
ATOM     19  S   UNL     1     -13.922  -2.302   0.517  0.00  0.00    +0.000 S 
ENDBRANCH  13  14
ENDBRANCH   3  12
TORSDOF 3
ENDMDL
